version 3
run Default-0-20220706-20:56:32-1946
attr configname Default
attr datetime 20220706-20:56:32
attr datetimef 20220706-205632
attr experiment Default
attr inifile omnetpp.ini
attr iterationvars ""
attr iterationvarsd ""
attr iterationvarsf ""
attr measurement ""
attr network myHospitalNetwork
attr processid 1946
attr repetition 0
attr replication #0
attr resultdir results
attr runnumber 0
attr seedset 0
config image-path ../../../src/omnetpp-6.0/samples/inet4.4/images:../../../src/veins-5.2/veins-veins-5.2/images
config cmdenv-express-mode true
config cmdenv-autoflush true
config cmdenv-status-frequency 0.1s
config **.cmdenv-log-level info
config ned-path .
config image-path ../../images
config network myHospitalNetwork
config debug-on-errors true
config print-undisposed false
config sim-time-limit 3600s
config **.scalar-recording true
config **.vector-recording true
config *.playgroundSizeX 2500m
config *.playgroundSizeY 2500m
config *.playgroundSizeZ 50m
config *.annotations.draw true
config *.manager.updateInterval 0.1s
config *.manager.host "\"localhost\""
config *.manager.port 9999
config *.manager.autoShutdown true
config *.manager.launchConfig "xmldoc(\"vd012.launchd.xml\")"
config *.manager.moduleType "\"agv=org.car2x.veins.nodes.Car pedestrian=lab001.veins_inet.IPerson\""
config *.manager.moduleName "\"agv=node pedestrian=personNode\""
config *.manager.moduleDisplayString "\"agv='i=veins/node/car;is=vs' pedestrian='i=veins/node/pedestrian;is=vs'\""
config *.rsu[0].mobility.x 300
config *.rsu[0].mobility.y 300
config *.rsu[0].mobility.z 3
config *.rsu[*].applType "\"HospitalControlApp\""
config *.rsu[*].appl.headerLength "80 bit"
config *.rsu[*].appl.sendBeacons false
config *.rsu[*].appl.dataOnSch false
config *.rsu[*].nic.phy80211p.antennaOffsetZ "0 m"
config *.connectionManager.sendDirect true
config *.connectionManager.maxInterfDist 2600m
config *.connectionManager.drawMaxIntfDist false
config *.**.nic.mac1609_4.useServiceChannel true
config *.**.nic.mac1609_4.txPower 20mW
config *.**.nic.mac1609_4.bitrate 6Mbps
config *.**.nic.phy80211p.minPowerLevel -110dBm
config *.**.nic.phy80211p.useNoiseFloor true
config *.**.nic.phy80211p.noiseFloor -98dBm
config *.**.nic.phy80211p.decider "xmldoc(\"config.xml\")"
config *.**.nic.phy80211p.analogueModels "xmldoc(\"config.xml\")"
config *.**.nic.phy80211p.usePropagationDelay true
config *.**.nic.phy80211p.antenna "xmldoc(\"antenna.xml\", \"/root/Antenna[@id='monopole']\")"
config *.node[*].nic.phy80211p.antennaOffsetY "0 m"
config *.node[*].nic.phy80211p.antennaOffsetZ "1.895 m"
config *.node[*].applType "\"AGVControlApp\""
config *.node[*].appl.headerLength "80 bit"
config *.node[*].appl.sendBeacons false
config *.node[*].appl.dataOnSch true
config *.node[*].appl.beaconInterval 0.1s
config *.node[*].veinsmobility.x 0
config *.node[*].veinsmobility.y 0
config *.node[*].veinsmobility.z 0
config *.node[*].veinsmobility.setHostSpeed false
config *.node[*0].veinsmobility.accidentCount 0

par myHospitalNetwork.node[10].appl typename "\"lab001.veins_inet.AGVControlApp\""
par myHospitalNetwork.node[10].appl headerLength 80bit
attr unit bit
par myHospitalNetwork.node[10].appl sendBeacons false
par myHospitalNetwork.node[10].appl beaconLengthBits 256bit
attr unit bit
par myHospitalNetwork.node[10].appl beaconUserPriority 7
par myHospitalNetwork.node[10].appl beaconInterval 0.1s
attr unit s
par myHospitalNetwork.node[10].appl dataLengthBits 1024bit
attr unit bit
par myHospitalNetwork.node[10].appl dataOnSch true
par myHospitalNetwork.node[10].appl dataUserPriority 7
par myHospitalNetwork.node[10].appl avoidBeaconSynchronization true
par myHospitalNetwork.node[10].appl sendWSA false
par myHospitalNetwork.node[10].appl wsaLengthBits 250bit
attr unit bit
par myHospitalNetwork.node[10].appl wsaInterval 1s
attr unit s
par myHospitalNetwork.node[10].appl appName "\"My first Veins App!\""
scalar myHospitalNetwork.node[10].appl generatedWSMs 0
scalar myHospitalNetwork.node[10].appl receivedWSMs 0
scalar myHospitalNetwork.node[10].appl generatedBSMs 2196
scalar myHospitalNetwork.node[10].appl receivedBSMs 0
scalar myHospitalNetwork.node[10].appl generatedWSAs 0
scalar myHospitalNetwork.node[10].appl receivedWSAs 0
par myHospitalNetwork.node[10].nic.phy80211p typename "\"org.car2x.veins.modules.phy.PhyLayer80211p\""
par myHospitalNetwork.node[10].nic.phy80211p recordStats false
par myHospitalNetwork.node[10].nic.phy80211p usePropagationDelay true
par myHospitalNetwork.node[10].nic.phy80211p noiseFloor -98dBm
attr unit dBm
par myHospitalNetwork.node[10].nic.phy80211p useNoiseFloor true
par myHospitalNetwork.node[10].nic.phy80211p antenna "<Antenna type=\"SampledAntenna1D\" id=\"monopole\">...</Antenna> at /home/ukraine/veins_framework/Lab001/simulations/eh//antenna.xml:35"
par myHospitalNetwork.node[10].nic.phy80211p antennaOffsetX 0m
attr unit m
par myHospitalNetwork.node[10].nic.phy80211p antennaOffsetY 0m
attr unit m
par myHospitalNetwork.node[10].nic.phy80211p antennaOffsetZ 1.895m
attr unit m
par myHospitalNetwork.node[10].nic.phy80211p antennaOffsetYaw 0rad
attr unit rad
par myHospitalNetwork.node[10].nic.phy80211p analogueModels "<root>...</root> at /home/ukraine/veins_framework/Lab001/simulations/eh//config.xml:34"
par myHospitalNetwork.node[10].nic.phy80211p decider "<root>...</root> at /home/ukraine/veins_framework/Lab001/simulations/eh//config.xml:34"
par myHospitalNetwork.node[10].nic.phy80211p minPowerLevel -110dBm
attr unit dBm
par myHospitalNetwork.node[10].nic.phy80211p timeRXToTX 0s
attr unit s
par myHospitalNetwork.node[10].nic.phy80211p timeRXToSleep 0s
attr unit s
par myHospitalNetwork.node[10].nic.phy80211p timeTXToRX 0s
attr unit s
par myHospitalNetwork.node[10].nic.phy80211p timeTXToSleep 0s
attr unit s
par myHospitalNetwork.node[10].nic.phy80211p timeSleepToRX 0s
attr unit s
par myHospitalNetwork.node[10].nic.phy80211p timeSleepToTX 0s
attr unit s
par myHospitalNetwork.node[10].nic.phy80211p initialRadioState 0
par myHospitalNetwork.node[10].nic.phy80211p radioMinAtt 1
par myHospitalNetwork.node[10].nic.phy80211p radioMaxAtt 0
par myHospitalNetwork.node[10].nic.phy80211p nbRadioChannels 1
par myHospitalNetwork.node[10].nic.phy80211p initialRadioChannel 0
par myHospitalNetwork.node[10].nic.phy80211p ccaThreshold -65dBm
attr unit dBm
par myHospitalNetwork.node[10].nic.phy80211p collectCollisionStatistics false
par myHospitalNetwork.node[10].nic.phy80211p allowTxDuringRx false
scalar myHospitalNetwork.node[10].nic.phy80211p busyTime 0.082984990892629
par myHospitalNetwork.node[10].nic.mac1609_4 typename "\"org.car2x.veins.modules.mac.ieee80211p.Mac1609_4\""
par myHospitalNetwork.node[10].nic.mac1609_4 notAffectedByHostState false
par myHospitalNetwork.node[10].nic.mac1609_4 headerLength 0bit
attr unit bit
par myHospitalNetwork.node[10].nic.mac1609_4 address "\"auto\""
par myHospitalNetwork.node[10].nic.mac1609_4 useServiceChannel true
par myHospitalNetwork.node[10].nic.mac1609_4 serviceChannel 1
par myHospitalNetwork.node[10].nic.mac1609_4 bitrate 6000000bps
attr unit bps
par myHospitalNetwork.node[10].nic.mac1609_4 syncOffset 0.0003s
attr unit s
par myHospitalNetwork.node[10].nic.mac1609_4 txPower 20mW
attr unit mW
par myHospitalNetwork.node[10].nic.mac1609_4 queueSize 0
par myHospitalNetwork.node[10].nic.mac1609_4 dot11RTSThreshold 12000bit
attr unit bit
par myHospitalNetwork.node[10].nic.mac1609_4 dot11ShortRetryLimit 7
par myHospitalNetwork.node[10].nic.mac1609_4 dot11LongRetryLimit 4
par myHospitalNetwork.node[10].nic.mac1609_4 ackLength 112bit
attr unit bit
par myHospitalNetwork.node[10].nic.mac1609_4 useAcks false
par myHospitalNetwork.node[10].nic.mac1609_4 frameErrorRate 0
par myHospitalNetwork.node[10].nic.mac1609_4 ackErrorRate 0
scalar myHospitalNetwork.node[10].nic.mac1609_4 ReceivedUnicastPackets 0
scalar myHospitalNetwork.node[10].nic.mac1609_4 ReceivedBroadcasts 10995
scalar myHospitalNetwork.node[10].nic.mac1609_4 SentPackets 4390
scalar myHospitalNetwork.node[10].nic.mac1609_4 SentAcknowledgements 0
scalar myHospitalNetwork.node[10].nic.mac1609_4 RetriesExceeded 0
scalar myHospitalNetwork.node[10].nic.mac1609_4 SNIRLostPackets 94671
scalar myHospitalNetwork.node[10].nic.mac1609_4 RXTXLostPackets 21292
scalar myHospitalNetwork.node[10].nic.mac1609_4 TotalLostPackets 115963
scalar myHospitalNetwork.node[10].nic.mac1609_4 DroppedPacketsInMac 0
scalar myHospitalNetwork.node[10].nic.mac1609_4 TooLittleTime 4201
scalar myHospitalNetwork.node[10].nic.mac1609_4 TimesIntoBackoff 8780
scalar myHospitalNetwork.node[10].nic.mac1609_4 SlotsBackoff 6490
scalar myHospitalNetwork.node[10].nic.mac1609_4 NumInternalContention 0
scalar myHospitalNetwork.node[10].nic.mac1609_4 totalBusyTime 4.744967486505
scalar myHospitalNetwork.node[10].nic.mac1609_4 retriesExceeded:count 0
attr recordingmode count
attr source org_car2x_veins_modules_mac_sigRetriesExceeded
scalar myHospitalNetwork.node[10].nic.mac1609_4 sentAcks:count 0
attr recordingmode count
attr source org_car2x_veins_modules_mac_sigSentAck
scalar myHospitalNetwork.node[10].nic.mac1609_4 sentPackets:count 4390
attr recordingmode count
attr source org_car2x_veins_modules_mac_sigSentPacket
scalar myHospitalNetwork.node[10].nic.mac1609_4 collisions:count 0
attr recordingmode count
attr source org_car2x_veins_modules_mac_sigCollision
scalar myHospitalNetwork.node[10].nic.mac1609_4 channelBusy:timeavg 0.02160732006605
attr recordingmode timeavg
attr source org_car2x_veins_modules_mac_sigChannelBusy
par myHospitalNetwork.node[10].nic typename "\"org.car2x.veins.modules.nic.Nic80211p\""
par myHospitalNetwork.node[10].nic connectionManagerName "\"connectionManager\""
par myHospitalNetwork.node[10].veinsmobility typename "\"org.car2x.veins.modules.mobility.traci.TraCIMobility\""
par myHospitalNetwork.node[10].veinsmobility notAffectedByHostState true
par myHospitalNetwork.node[10].veinsmobility x 0
par myHospitalNetwork.node[10].veinsmobility y 0
par myHospitalNetwork.node[10].veinsmobility z 0
par myHospitalNetwork.node[10].veinsmobility xOrientation 1
par myHospitalNetwork.node[10].veinsmobility yOrientation 0
par myHospitalNetwork.node[10].veinsmobility zOrientation 0
par myHospitalNetwork.node[10].veinsmobility hostPositionOffset 0m
attr unit m
par myHospitalNetwork.node[10].veinsmobility setHostSpeed false
par myHospitalNetwork.node[10].veinsmobility accidentCount 0
par myHospitalNetwork.node[10].veinsmobility accidentStart 39.6844s
attr unit s
par myHospitalNetwork.node[10].veinsmobility accidentDuration "uniform(30s, 60s)"
attr unit s
par myHospitalNetwork.node[10].veinsmobility accidentInterval "uniform(30s, 60s)"
attr unit s
scalar myHospitalNetwork.node[10].veinsmobility startTime 8.9
scalar myHospitalNetwork.node[10].veinsmobility totalTime 219.5
scalar myHospitalNetwork.node[10].veinsmobility stopTime 228.5
scalar myHospitalNetwork.node[10].veinsmobility minSpeed 0
scalar myHospitalNetwork.node[10].veinsmobility maxSpeed 3.7956
scalar myHospitalNetwork.node[10].veinsmobility totalDistance 794.21641161429
scalar myHospitalNetwork.node[10].veinsmobility totalCO2Emission 295.90894729264
par myHospitalNetwork.node[10] typename "\"org.car2x.veins.nodes.Car\""
par myHospitalNetwork.node[10] applType "\"AGVControlApp\""
par myHospitalNetwork.node[10] nicType "\"Nic80211p\""
par myHospitalNetwork.node[10] veinsmobilityType "\"org.car2x.veins.modules.mobility.traci.TraCIMobility\""
par myHospitalNetwork.node[11].appl typename "\"lab001.veins_inet.AGVControlApp\""
par myHospitalNetwork.node[11].appl headerLength 80bit
attr unit bit
par myHospitalNetwork.node[11].appl sendBeacons false
par myHospitalNetwork.node[11].appl beaconLengthBits 256bit
attr unit bit
par myHospitalNetwork.node[11].appl beaconUserPriority 7
par myHospitalNetwork.node[11].appl beaconInterval 0.1s
attr unit s
par myHospitalNetwork.node[11].appl dataLengthBits 1024bit
attr unit bit
par myHospitalNetwork.node[11].appl dataOnSch true
par myHospitalNetwork.node[11].appl dataUserPriority 7
par myHospitalNetwork.node[11].appl avoidBeaconSynchronization true
par myHospitalNetwork.node[11].appl sendWSA false
par myHospitalNetwork.node[11].appl wsaLengthBits 250bit
attr unit bit
par myHospitalNetwork.node[11].appl wsaInterval 1s
attr unit s
par myHospitalNetwork.node[11].appl appName "\"My first Veins App!\""
scalar myHospitalNetwork.node[11].appl generatedWSMs 0
scalar myHospitalNetwork.node[11].appl receivedWSMs 0
scalar myHospitalNetwork.node[11].appl generatedBSMs 2205
scalar myHospitalNetwork.node[11].appl receivedBSMs 0
scalar myHospitalNetwork.node[11].appl generatedWSAs 0
scalar myHospitalNetwork.node[11].appl receivedWSAs 0
par myHospitalNetwork.node[11].nic.phy80211p typename "\"org.car2x.veins.modules.phy.PhyLayer80211p\""
par myHospitalNetwork.node[11].nic.phy80211p recordStats false
par myHospitalNetwork.node[11].nic.phy80211p usePropagationDelay true
par myHospitalNetwork.node[11].nic.phy80211p noiseFloor -98dBm
attr unit dBm
par myHospitalNetwork.node[11].nic.phy80211p useNoiseFloor true
par myHospitalNetwork.node[11].nic.phy80211p antenna "<Antenna type=\"SampledAntenna1D\" id=\"monopole\">...</Antenna> at /home/ukraine/veins_framework/Lab001/simulations/eh//antenna.xml:35"
par myHospitalNetwork.node[11].nic.phy80211p antennaOffsetX 0m
attr unit m
par myHospitalNetwork.node[11].nic.phy80211p antennaOffsetY 0m
attr unit m
par myHospitalNetwork.node[11].nic.phy80211p antennaOffsetZ 1.895m
attr unit m
par myHospitalNetwork.node[11].nic.phy80211p antennaOffsetYaw 0rad
attr unit rad
par myHospitalNetwork.node[11].nic.phy80211p analogueModels "<root>...</root> at /home/ukraine/veins_framework/Lab001/simulations/eh//config.xml:34"
par myHospitalNetwork.node[11].nic.phy80211p decider "<root>...</root> at /home/ukraine/veins_framework/Lab001/simulations/eh//config.xml:34"
par myHospitalNetwork.node[11].nic.phy80211p minPowerLevel -110dBm
attr unit dBm
par myHospitalNetwork.node[11].nic.phy80211p timeRXToTX 0s
attr unit s
par myHospitalNetwork.node[11].nic.phy80211p timeRXToSleep 0s
attr unit s
par myHospitalNetwork.node[11].nic.phy80211p timeTXToRX 0s
attr unit s
par myHospitalNetwork.node[11].nic.phy80211p timeTXToSleep 0s
attr unit s
par myHospitalNetwork.node[11].nic.phy80211p timeSleepToRX 0s
attr unit s
par myHospitalNetwork.node[11].nic.phy80211p timeSleepToTX 0s
attr unit s
par myHospitalNetwork.node[11].nic.phy80211p initialRadioState 0
par myHospitalNetwork.node[11].nic.phy80211p radioMinAtt 1
par myHospitalNetwork.node[11].nic.phy80211p radioMaxAtt 0
par myHospitalNetwork.node[11].nic.phy80211p nbRadioChannels 1
par myHospitalNetwork.node[11].nic.phy80211p initialRadioChannel 0
par myHospitalNetwork.node[11].nic.phy80211p ccaThreshold -65dBm
attr unit dBm
par myHospitalNetwork.node[11].nic.phy80211p collectCollisionStatistics false
par myHospitalNetwork.node[11].nic.phy80211p allowTxDuringRx false
scalar myHospitalNetwork.node[11].nic.phy80211p busyTime 0.071678294784659
par myHospitalNetwork.node[11].nic.mac1609_4 typename "\"org.car2x.veins.modules.mac.ieee80211p.Mac1609_4\""
par myHospitalNetwork.node[11].nic.mac1609_4 notAffectedByHostState false
par myHospitalNetwork.node[11].nic.mac1609_4 headerLength 0bit
attr unit bit
par myHospitalNetwork.node[11].nic.mac1609_4 address "\"auto\""
par myHospitalNetwork.node[11].nic.mac1609_4 useServiceChannel true
par myHospitalNetwork.node[11].nic.mac1609_4 serviceChannel 1
par myHospitalNetwork.node[11].nic.mac1609_4 bitrate 6000000bps
attr unit bps
par myHospitalNetwork.node[11].nic.mac1609_4 syncOffset 0.0003s
attr unit s
par myHospitalNetwork.node[11].nic.mac1609_4 txPower 20mW
attr unit mW
par myHospitalNetwork.node[11].nic.mac1609_4 queueSize 0
par myHospitalNetwork.node[11].nic.mac1609_4 dot11RTSThreshold 12000bit
attr unit bit
par myHospitalNetwork.node[11].nic.mac1609_4 dot11ShortRetryLimit 7
par myHospitalNetwork.node[11].nic.mac1609_4 dot11LongRetryLimit 4
par myHospitalNetwork.node[11].nic.mac1609_4 ackLength 112bit
attr unit bit
par myHospitalNetwork.node[11].nic.mac1609_4 useAcks false
par myHospitalNetwork.node[11].nic.mac1609_4 frameErrorRate 0
par myHospitalNetwork.node[11].nic.mac1609_4 ackErrorRate 0
scalar myHospitalNetwork.node[11].nic.mac1609_4 ReceivedUnicastPackets 0
scalar myHospitalNetwork.node[11].nic.mac1609_4 ReceivedBroadcasts 10975
scalar myHospitalNetwork.node[11].nic.mac1609_4 SentPackets 4408
scalar myHospitalNetwork.node[11].nic.mac1609_4 SentAcknowledgements 0
scalar myHospitalNetwork.node[11].nic.mac1609_4 RetriesExceeded 0
scalar myHospitalNetwork.node[11].nic.mac1609_4 SNIRLostPackets 84208
scalar myHospitalNetwork.node[11].nic.mac1609_4 RXTXLostPackets 32835
scalar myHospitalNetwork.node[11].nic.mac1609_4 TotalLostPackets 117043
scalar myHospitalNetwork.node[11].nic.mac1609_4 DroppedPacketsInMac 0
scalar myHospitalNetwork.node[11].nic.mac1609_4 TooLittleTime 30
scalar myHospitalNetwork.node[11].nic.mac1609_4 TimesIntoBackoff 7187
scalar myHospitalNetwork.node[11].nic.mac1609_4 SlotsBackoff 6483
scalar myHospitalNetwork.node[11].nic.mac1609_4 NumInternalContention 0
scalar myHospitalNetwork.node[11].nic.mac1609_4 totalBusyTime 5.163209943291
scalar myHospitalNetwork.node[11].nic.mac1609_4 retriesExceeded:count 0
attr recordingmode count
attr source org_car2x_veins_modules_mac_sigRetriesExceeded
scalar myHospitalNetwork.node[11].nic.mac1609_4 sentAcks:count 0
attr recordingmode count
attr source org_car2x_veins_modules_mac_sigSentAck
scalar myHospitalNetwork.node[11].nic.mac1609_4 sentPackets:count 4408
attr recordingmode count
attr source org_car2x_veins_modules_mac_sigSentPacket
scalar myHospitalNetwork.node[11].nic.mac1609_4 collisions:count 0
attr recordingmode count
attr source org_car2x_veins_modules_mac_sigCollision
scalar myHospitalNetwork.node[11].nic.mac1609_4 channelBusy:timeavg 0.02341591811016
attr recordingmode timeavg
attr source org_car2x_veins_modules_mac_sigChannelBusy
par myHospitalNetwork.node[11].nic typename "\"org.car2x.veins.modules.nic.Nic80211p\""
par myHospitalNetwork.node[11].nic connectionManagerName "\"connectionManager\""
par myHospitalNetwork.node[11].veinsmobility typename "\"org.car2x.veins.modules.mobility.traci.TraCIMobility\""
par myHospitalNetwork.node[11].veinsmobility notAffectedByHostState true
par myHospitalNetwork.node[11].veinsmobility x 0
par myHospitalNetwork.node[11].veinsmobility y 0
par myHospitalNetwork.node[11].veinsmobility z 0
par myHospitalNetwork.node[11].veinsmobility xOrientation 1
par myHospitalNetwork.node[11].veinsmobility yOrientation 0
par myHospitalNetwork.node[11].veinsmobility zOrientation 0
par myHospitalNetwork.node[11].veinsmobility hostPositionOffset 0m
attr unit m
par myHospitalNetwork.node[11].veinsmobility setHostSpeed false
par myHospitalNetwork.node[11].veinsmobility accidentCount 0
par myHospitalNetwork.node[11].veinsmobility accidentStart 56.3424s
attr unit s
par myHospitalNetwork.node[11].veinsmobility accidentDuration "uniform(30s, 60s)"
attr unit s
par myHospitalNetwork.node[11].veinsmobility accidentInterval "uniform(30s, 60s)"
attr unit s
scalar myHospitalNetwork.node[11].veinsmobility startTime 10.1
scalar myHospitalNetwork.node[11].veinsmobility totalTime 220.4
scalar myHospitalNetwork.node[11].veinsmobility stopTime 230.6
scalar myHospitalNetwork.node[11].veinsmobility minSpeed 0
scalar myHospitalNetwork.node[11].veinsmobility maxSpeed 5.376981
scalar myHospitalNetwork.node[11].veinsmobility totalDistance 876.134065522
scalar myHospitalNetwork.node[11].veinsmobility totalCO2Emission 306.08728648054
par myHospitalNetwork.node[11] typename "\"org.car2x.veins.nodes.Car\""
par myHospitalNetwork.node[11] applType "\"AGVControlApp\""
par myHospitalNetwork.node[11] nicType "\"Nic80211p\""
par myHospitalNetwork.node[11] veinsmobilityType "\"org.car2x.veins.modules.mobility.traci.TraCIMobility\""
par myHospitalNetwork.node[0].appl typename "\"lab001.veins_inet.AGVControlApp\""
par myHospitalNetwork.node[0].appl headerLength 80bit
attr unit bit
par myHospitalNetwork.node[0].appl sendBeacons false
par myHospitalNetwork.node[0].appl beaconLengthBits 256bit
attr unit bit
par myHospitalNetwork.node[0].appl beaconUserPriority 7
par myHospitalNetwork.node[0].appl beaconInterval 0.1s
attr unit s
par myHospitalNetwork.node[0].appl dataLengthBits 1024bit
attr unit bit
par myHospitalNetwork.node[0].appl dataOnSch true
par myHospitalNetwork.node[0].appl dataUserPriority 7
par myHospitalNetwork.node[0].appl avoidBeaconSynchronization true
par myHospitalNetwork.node[0].appl sendWSA false
par myHospitalNetwork.node[0].appl wsaLengthBits 250bit
attr unit bit
par myHospitalNetwork.node[0].appl wsaInterval 1s
attr unit s
par myHospitalNetwork.node[0].appl appName "\"My first Veins App!\""
scalar myHospitalNetwork.node[0].appl generatedWSMs 0
scalar myHospitalNetwork.node[0].appl receivedWSMs 0
scalar myHospitalNetwork.node[0].appl generatedBSMs 2314
scalar myHospitalNetwork.node[0].appl receivedBSMs 0
scalar myHospitalNetwork.node[0].appl generatedWSAs 0
scalar myHospitalNetwork.node[0].appl receivedWSAs 0
par myHospitalNetwork.node[0].nic.phy80211p typename "\"org.car2x.veins.modules.phy.PhyLayer80211p\""
par myHospitalNetwork.node[0].nic.phy80211p recordStats false
par myHospitalNetwork.node[0].nic.phy80211p usePropagationDelay true
par myHospitalNetwork.node[0].nic.phy80211p noiseFloor -98dBm
attr unit dBm
par myHospitalNetwork.node[0].nic.phy80211p useNoiseFloor true
par myHospitalNetwork.node[0].nic.phy80211p antenna "<Antenna type=\"SampledAntenna1D\" id=\"monopole\">...</Antenna> at /home/ukraine/veins_framework/Lab001/simulations/eh//antenna.xml:35"
par myHospitalNetwork.node[0].nic.phy80211p antennaOffsetX 0m
attr unit m
par myHospitalNetwork.node[0].nic.phy80211p antennaOffsetY 0m
attr unit m
par myHospitalNetwork.node[0].nic.phy80211p antennaOffsetZ 1.895m
attr unit m
par myHospitalNetwork.node[0].nic.phy80211p antennaOffsetYaw 0rad
attr unit rad
par myHospitalNetwork.node[0].nic.phy80211p analogueModels "<root>...</root> at /home/ukraine/veins_framework/Lab001/simulations/eh//config.xml:34"
par myHospitalNetwork.node[0].nic.phy80211p decider "<root>...</root> at /home/ukraine/veins_framework/Lab001/simulations/eh//config.xml:34"
par myHospitalNetwork.node[0].nic.phy80211p minPowerLevel -110dBm
attr unit dBm
par myHospitalNetwork.node[0].nic.phy80211p timeRXToTX 0s
attr unit s
par myHospitalNetwork.node[0].nic.phy80211p timeRXToSleep 0s
attr unit s
par myHospitalNetwork.node[0].nic.phy80211p timeTXToRX 0s
attr unit s
par myHospitalNetwork.node[0].nic.phy80211p timeTXToSleep 0s
attr unit s
par myHospitalNetwork.node[0].nic.phy80211p timeSleepToRX 0s
attr unit s
par myHospitalNetwork.node[0].nic.phy80211p timeSleepToTX 0s
attr unit s
par myHospitalNetwork.node[0].nic.phy80211p initialRadioState 0
par myHospitalNetwork.node[0].nic.phy80211p radioMinAtt 1
par myHospitalNetwork.node[0].nic.phy80211p radioMaxAtt 0
par myHospitalNetwork.node[0].nic.phy80211p nbRadioChannels 1
par myHospitalNetwork.node[0].nic.phy80211p initialRadioChannel 0
par myHospitalNetwork.node[0].nic.phy80211p ccaThreshold -65dBm
attr unit dBm
par myHospitalNetwork.node[0].nic.phy80211p collectCollisionStatistics false
par myHospitalNetwork.node[0].nic.phy80211p allowTxDuringRx false
scalar myHospitalNetwork.node[0].nic.phy80211p busyTime 0.069243733794371
par myHospitalNetwork.node[0].nic.mac1609_4 typename "\"org.car2x.veins.modules.mac.ieee80211p.Mac1609_4\""
par myHospitalNetwork.node[0].nic.mac1609_4 notAffectedByHostState false
par myHospitalNetwork.node[0].nic.mac1609_4 headerLength 0bit
attr unit bit
par myHospitalNetwork.node[0].nic.mac1609_4 address "\"auto\""
par myHospitalNetwork.node[0].nic.mac1609_4 useServiceChannel true
par myHospitalNetwork.node[0].nic.mac1609_4 serviceChannel 1
par myHospitalNetwork.node[0].nic.mac1609_4 bitrate 6000000bps
attr unit bps
par myHospitalNetwork.node[0].nic.mac1609_4 syncOffset 0.0003s
attr unit s
par myHospitalNetwork.node[0].nic.mac1609_4 txPower 20mW
attr unit mW
par myHospitalNetwork.node[0].nic.mac1609_4 queueSize 0
par myHospitalNetwork.node[0].nic.mac1609_4 dot11RTSThreshold 12000bit
attr unit bit
par myHospitalNetwork.node[0].nic.mac1609_4 dot11ShortRetryLimit 7
par myHospitalNetwork.node[0].nic.mac1609_4 dot11LongRetryLimit 4
par myHospitalNetwork.node[0].nic.mac1609_4 ackLength 112bit
attr unit bit
par myHospitalNetwork.node[0].nic.mac1609_4 useAcks false
par myHospitalNetwork.node[0].nic.mac1609_4 frameErrorRate 0
par myHospitalNetwork.node[0].nic.mac1609_4 ackErrorRate 0
scalar myHospitalNetwork.node[0].nic.mac1609_4 ReceivedUnicastPackets 0
scalar myHospitalNetwork.node[0].nic.mac1609_4 ReceivedBroadcasts 14073
scalar myHospitalNetwork.node[0].nic.mac1609_4 SentPackets 4626
scalar myHospitalNetwork.node[0].nic.mac1609_4 SentAcknowledgements 0
scalar myHospitalNetwork.node[0].nic.mac1609_4 RetriesExceeded 0
scalar myHospitalNetwork.node[0].nic.mac1609_4 SNIRLostPackets 81630
scalar myHospitalNetwork.node[0].nic.mac1609_4 RXTXLostPackets 34401
scalar myHospitalNetwork.node[0].nic.mac1609_4 TotalLostPackets 116031
scalar myHospitalNetwork.node[0].nic.mac1609_4 DroppedPacketsInMac 0
scalar myHospitalNetwork.node[0].nic.mac1609_4 TooLittleTime 92
scalar myHospitalNetwork.node[0].nic.mac1609_4 TimesIntoBackoff 7614
scalar myHospitalNetwork.node[0].nic.mac1609_4 SlotsBackoff 6885
scalar myHospitalNetwork.node[0].nic.mac1609_4 NumInternalContention 0
scalar myHospitalNetwork.node[0].nic.mac1609_4 totalBusyTime 5.397287358974
scalar myHospitalNetwork.node[0].nic.mac1609_4 retriesExceeded:count 0
attr recordingmode count
attr source org_car2x_veins_modules_mac_sigRetriesExceeded
scalar myHospitalNetwork.node[0].nic.mac1609_4 sentAcks:count 0
attr recordingmode count
attr source org_car2x_veins_modules_mac_sigSentAck
scalar myHospitalNetwork.node[0].nic.mac1609_4 sentPackets:count 4626
attr recordingmode count
attr source org_car2x_veins_modules_mac_sigSentPacket
scalar myHospitalNetwork.node[0].nic.mac1609_4 collisions:count 0
attr recordingmode count
attr source org_car2x_veins_modules_mac_sigCollision
scalar myHospitalNetwork.node[0].nic.mac1609_4 channelBusy:timeavg 0.02332449161181
attr recordingmode timeavg
attr source org_car2x_veins_modules_mac_sigChannelBusy
par myHospitalNetwork.node[0].nic typename "\"org.car2x.veins.modules.nic.Nic80211p\""
par myHospitalNetwork.node[0].nic connectionManagerName "\"connectionManager\""
par myHospitalNetwork.node[0].veinsmobility typename "\"org.car2x.veins.modules.mobility.traci.TraCIMobility\""
par myHospitalNetwork.node[0].veinsmobility notAffectedByHostState true
par myHospitalNetwork.node[0].veinsmobility x 0
par myHospitalNetwork.node[0].veinsmobility y 0
par myHospitalNetwork.node[0].veinsmobility z 0
par myHospitalNetwork.node[0].veinsmobility xOrientation 1
par myHospitalNetwork.node[0].veinsmobility yOrientation 0
par myHospitalNetwork.node[0].veinsmobility zOrientation 0
par myHospitalNetwork.node[0].veinsmobility hostPositionOffset 0m
attr unit m
par myHospitalNetwork.node[0].veinsmobility setHostSpeed false
par myHospitalNetwork.node[0].veinsmobility accidentCount 0
par myHospitalNetwork.node[0].veinsmobility accidentStart 46.3465s
attr unit s
par myHospitalNetwork.node[0].veinsmobility accidentDuration "uniform(30s, 60s)"
attr unit s
par myHospitalNetwork.node[0].veinsmobility accidentInterval "uniform(30s, 60s)"
attr unit s
scalar myHospitalNetwork.node[0].veinsmobility startTime 0.1
scalar myHospitalNetwork.node[0].veinsmobility totalTime 231.3
scalar myHospitalNetwork.node[0].veinsmobility stopTime 231.5
scalar myHospitalNetwork.node[0].veinsmobility minSpeed 0
scalar myHospitalNetwork.node[0].veinsmobility maxSpeed 5.170236
scalar myHospitalNetwork.node[0].veinsmobility totalDistance 876.25971556377
scalar myHospitalNetwork.node[0].veinsmobility totalCO2Emission 306.20582577102
par myHospitalNetwork.node[0] typename "\"org.car2x.veins.nodes.Car\""
par myHospitalNetwork.node[0] applType "\"AGVControlApp\""
par myHospitalNetwork.node[0] nicType "\"Nic80211p\""
par myHospitalNetwork.node[0] veinsmobilityType "\"org.car2x.veins.modules.mobility.traci.TraCIMobility\""
par myHospitalNetwork.node[1].appl typename "\"lab001.veins_inet.AGVControlApp\""
par myHospitalNetwork.node[1].appl headerLength 80bit
attr unit bit
par myHospitalNetwork.node[1].appl sendBeacons false
par myHospitalNetwork.node[1].appl beaconLengthBits 256bit
attr unit bit
par myHospitalNetwork.node[1].appl beaconUserPriority 7
par myHospitalNetwork.node[1].appl beaconInterval 0.1s
attr unit s
par myHospitalNetwork.node[1].appl dataLengthBits 1024bit
attr unit bit
par myHospitalNetwork.node[1].appl dataOnSch true
par myHospitalNetwork.node[1].appl dataUserPriority 7
par myHospitalNetwork.node[1].appl avoidBeaconSynchronization true
par myHospitalNetwork.node[1].appl sendWSA false
par myHospitalNetwork.node[1].appl wsaLengthBits 250bit
attr unit bit
par myHospitalNetwork.node[1].appl wsaInterval 1s
attr unit s
par myHospitalNetwork.node[1].appl appName "\"My first Veins App!\""
scalar myHospitalNetwork.node[1].appl generatedWSMs 0
scalar myHospitalNetwork.node[1].appl receivedWSMs 0
scalar myHospitalNetwork.node[1].appl generatedBSMs 2321
scalar myHospitalNetwork.node[1].appl receivedBSMs 0
scalar myHospitalNetwork.node[1].appl generatedWSAs 0
scalar myHospitalNetwork.node[1].appl receivedWSAs 0
par myHospitalNetwork.node[1].nic.phy80211p typename "\"org.car2x.veins.modules.phy.PhyLayer80211p\""
par myHospitalNetwork.node[1].nic.phy80211p recordStats false
par myHospitalNetwork.node[1].nic.phy80211p usePropagationDelay true
par myHospitalNetwork.node[1].nic.phy80211p noiseFloor -98dBm
attr unit dBm
par myHospitalNetwork.node[1].nic.phy80211p useNoiseFloor true
par myHospitalNetwork.node[1].nic.phy80211p antenna "<Antenna type=\"SampledAntenna1D\" id=\"monopole\">...</Antenna> at /home/ukraine/veins_framework/Lab001/simulations/eh//antenna.xml:35"
par myHospitalNetwork.node[1].nic.phy80211p antennaOffsetX 0m
attr unit m
par myHospitalNetwork.node[1].nic.phy80211p antennaOffsetY 0m
attr unit m
par myHospitalNetwork.node[1].nic.phy80211p antennaOffsetZ 1.895m
attr unit m
par myHospitalNetwork.node[1].nic.phy80211p antennaOffsetYaw 0rad
attr unit rad
par myHospitalNetwork.node[1].nic.phy80211p analogueModels "<root>...</root> at /home/ukraine/veins_framework/Lab001/simulations/eh//config.xml:34"
par myHospitalNetwork.node[1].nic.phy80211p decider "<root>...</root> at /home/ukraine/veins_framework/Lab001/simulations/eh//config.xml:34"
par myHospitalNetwork.node[1].nic.phy80211p minPowerLevel -110dBm
attr unit dBm
par myHospitalNetwork.node[1].nic.phy80211p timeRXToTX 0s
attr unit s
par myHospitalNetwork.node[1].nic.phy80211p timeRXToSleep 0s
attr unit s
par myHospitalNetwork.node[1].nic.phy80211p timeTXToRX 0s
attr unit s
par myHospitalNetwork.node[1].nic.phy80211p timeTXToSleep 0s
attr unit s
par myHospitalNetwork.node[1].nic.phy80211p timeSleepToRX 0s
attr unit s
par myHospitalNetwork.node[1].nic.phy80211p timeSleepToTX 0s
attr unit s
par myHospitalNetwork.node[1].nic.phy80211p initialRadioState 0
par myHospitalNetwork.node[1].nic.phy80211p radioMinAtt 1
par myHospitalNetwork.node[1].nic.phy80211p radioMaxAtt 0
par myHospitalNetwork.node[1].nic.phy80211p nbRadioChannels 1
par myHospitalNetwork.node[1].nic.phy80211p initialRadioChannel 0
par myHospitalNetwork.node[1].nic.phy80211p ccaThreshold -65dBm
attr unit dBm
par myHospitalNetwork.node[1].nic.phy80211p collectCollisionStatistics false
par myHospitalNetwork.node[1].nic.phy80211p allowTxDuringRx false
scalar myHospitalNetwork.node[1].nic.phy80211p busyTime 0.085029142611052
par myHospitalNetwork.node[1].nic.mac1609_4 typename "\"org.car2x.veins.modules.mac.ieee80211p.Mac1609_4\""
par myHospitalNetwork.node[1].nic.mac1609_4 notAffectedByHostState false
par myHospitalNetwork.node[1].nic.mac1609_4 headerLength 0bit
attr unit bit
par myHospitalNetwork.node[1].nic.mac1609_4 address "\"auto\""
par myHospitalNetwork.node[1].nic.mac1609_4 useServiceChannel true
par myHospitalNetwork.node[1].nic.mac1609_4 serviceChannel 1
par myHospitalNetwork.node[1].nic.mac1609_4 bitrate 6000000bps
attr unit bps
par myHospitalNetwork.node[1].nic.mac1609_4 syncOffset 0.0003s
attr unit s
par myHospitalNetwork.node[1].nic.mac1609_4 txPower 20mW
attr unit mW
par myHospitalNetwork.node[1].nic.mac1609_4 queueSize 0
par myHospitalNetwork.node[1].nic.mac1609_4 dot11RTSThreshold 12000bit
attr unit bit
par myHospitalNetwork.node[1].nic.mac1609_4 dot11ShortRetryLimit 7
par myHospitalNetwork.node[1].nic.mac1609_4 dot11LongRetryLimit 4
par myHospitalNetwork.node[1].nic.mac1609_4 ackLength 112bit
attr unit bit
par myHospitalNetwork.node[1].nic.mac1609_4 useAcks false
par myHospitalNetwork.node[1].nic.mac1609_4 frameErrorRate 0
par myHospitalNetwork.node[1].nic.mac1609_4 ackErrorRate 0
scalar myHospitalNetwork.node[1].nic.mac1609_4 ReceivedUnicastPackets 0
scalar myHospitalNetwork.node[1].nic.mac1609_4 ReceivedBroadcasts 14161
scalar myHospitalNetwork.node[1].nic.mac1609_4 SentPackets 4640
scalar myHospitalNetwork.node[1].nic.mac1609_4 SentAcknowledgements 0
scalar myHospitalNetwork.node[1].nic.mac1609_4 RetriesExceeded 0
scalar myHospitalNetwork.node[1].nic.mac1609_4 SNIRLostPackets 101123
scalar myHospitalNetwork.node[1].nic.mac1609_4 RXTXLostPackets 15831
scalar myHospitalNetwork.node[1].nic.mac1609_4 TotalLostPackets 116954
scalar myHospitalNetwork.node[1].nic.mac1609_4 DroppedPacketsInMac 0
scalar myHospitalNetwork.node[1].nic.mac1609_4 TooLittleTime 4446
scalar myHospitalNetwork.node[1].nic.mac1609_4 TimesIntoBackoff 9280
scalar myHospitalNetwork.node[1].nic.mac1609_4 SlotsBackoff 7112
scalar myHospitalNetwork.node[1].nic.mac1609_4 NumInternalContention 0
scalar myHospitalNetwork.node[1].nic.mac1609_4 totalBusyTime 4.92268002206
scalar myHospitalNetwork.node[1].nic.mac1609_4 retriesExceeded:count 0
attr recordingmode count
attr source org_car2x_veins_modules_mac_sigRetriesExceeded
scalar myHospitalNetwork.node[1].nic.mac1609_4 sentAcks:count 0
attr recordingmode count
attr source org_car2x_veins_modules_mac_sigSentAck
scalar myHospitalNetwork.node[1].nic.mac1609_4 sentPackets:count 4640
attr recordingmode count
attr source org_car2x_veins_modules_mac_sigSentPacket
scalar myHospitalNetwork.node[1].nic.mac1609_4 collisions:count 0
attr recordingmode count
attr source org_car2x_veins_modules_mac_sigCollision
scalar myHospitalNetwork.node[1].nic.mac1609_4 channelBusy:timeavg 0.02120930642852
attr recordingmode timeavg
attr source org_car2x_veins_modules_mac_sigChannelBusy
par myHospitalNetwork.node[1].nic typename "\"org.car2x.veins.modules.nic.Nic80211p\""
par myHospitalNetwork.node[1].nic connectionManagerName "\"connectionManager\""
par myHospitalNetwork.node[1].veinsmobility typename "\"org.car2x.veins.modules.mobility.traci.TraCIMobility\""
par myHospitalNetwork.node[1].veinsmobility notAffectedByHostState true
par myHospitalNetwork.node[1].veinsmobility x 0
par myHospitalNetwork.node[1].veinsmobility y 0
par myHospitalNetwork.node[1].veinsmobility z 0
par myHospitalNetwork.node[1].veinsmobility xOrientation 1
par myHospitalNetwork.node[1].veinsmobility yOrientation 0
par myHospitalNetwork.node[1].veinsmobility zOrientation 0
par myHospitalNetwork.node[1].veinsmobility hostPositionOffset 0m
attr unit m
par myHospitalNetwork.node[1].veinsmobility setHostSpeed false
par myHospitalNetwork.node[1].veinsmobility accidentCount 0
par myHospitalNetwork.node[1].veinsmobility accidentStart 57.5471s
attr unit s
par myHospitalNetwork.node[1].veinsmobility accidentDuration "uniform(30s, 60s)"
attr unit s
par myHospitalNetwork.node[1].veinsmobility accidentInterval "uniform(30s, 60s)"
attr unit s
scalar myHospitalNetwork.node[1].veinsmobility startTime 1.1
scalar myHospitalNetwork.node[1].veinsmobility totalTime 232
scalar myHospitalNetwork.node[1].veinsmobility stopTime 233.2
scalar myHospitalNetwork.node[1].veinsmobility minSpeed 0
scalar myHospitalNetwork.node[1].veinsmobility maxSpeed 5.755029
scalar myHospitalNetwork.node[1].veinsmobility totalDistance 889.04352969507
scalar myHospitalNetwork.node[1].veinsmobility totalCO2Emission 331.44570650157
par myHospitalNetwork.node[1] typename "\"org.car2x.veins.nodes.Car\""
par myHospitalNetwork.node[1] applType "\"AGVControlApp\""
par myHospitalNetwork.node[1] nicType "\"Nic80211p\""
par myHospitalNetwork.node[1] veinsmobilityType "\"org.car2x.veins.modules.mobility.traci.TraCIMobility\""
par myHospitalNetwork.node[12].appl typename "\"lab001.veins_inet.AGVControlApp\""
par myHospitalNetwork.node[12].appl headerLength 80bit
attr unit bit
par myHospitalNetwork.node[12].appl sendBeacons false
par myHospitalNetwork.node[12].appl beaconLengthBits 256bit
attr unit bit
par myHospitalNetwork.node[12].appl beaconUserPriority 7
par myHospitalNetwork.node[12].appl beaconInterval 0.1s
attr unit s
par myHospitalNetwork.node[12].appl dataLengthBits 1024bit
attr unit bit
par myHospitalNetwork.node[12].appl dataOnSch true
par myHospitalNetwork.node[12].appl dataUserPriority 7
par myHospitalNetwork.node[12].appl avoidBeaconSynchronization true
par myHospitalNetwork.node[12].appl sendWSA false
par myHospitalNetwork.node[12].appl wsaLengthBits 250bit
attr unit bit
par myHospitalNetwork.node[12].appl wsaInterval 1s
attr unit s
par myHospitalNetwork.node[12].appl appName "\"My first Veins App!\""
scalar myHospitalNetwork.node[12].appl generatedWSMs 3
scalar myHospitalNetwork.node[12].appl receivedWSMs 0
scalar myHospitalNetwork.node[12].appl generatedBSMs 2259
scalar myHospitalNetwork.node[12].appl receivedBSMs 0
scalar myHospitalNetwork.node[12].appl generatedWSAs 2
scalar myHospitalNetwork.node[12].appl receivedWSAs 0
par myHospitalNetwork.node[12].nic.phy80211p typename "\"org.car2x.veins.modules.phy.PhyLayer80211p\""
par myHospitalNetwork.node[12].nic.phy80211p recordStats false
par myHospitalNetwork.node[12].nic.phy80211p usePropagationDelay true
par myHospitalNetwork.node[12].nic.phy80211p noiseFloor -98dBm
attr unit dBm
par myHospitalNetwork.node[12].nic.phy80211p useNoiseFloor true
par myHospitalNetwork.node[12].nic.phy80211p antenna "<Antenna type=\"SampledAntenna1D\" id=\"monopole\">...</Antenna> at /home/ukraine/veins_framework/Lab001/simulations/eh//antenna.xml:35"
par myHospitalNetwork.node[12].nic.phy80211p antennaOffsetX 0m
attr unit m
par myHospitalNetwork.node[12].nic.phy80211p antennaOffsetY 0m
attr unit m
par myHospitalNetwork.node[12].nic.phy80211p antennaOffsetZ 1.895m
attr unit m
par myHospitalNetwork.node[12].nic.phy80211p antennaOffsetYaw 0rad
attr unit rad
par myHospitalNetwork.node[12].nic.phy80211p analogueModels "<root>...</root> at /home/ukraine/veins_framework/Lab001/simulations/eh//config.xml:34"
par myHospitalNetwork.node[12].nic.phy80211p decider "<root>...</root> at /home/ukraine/veins_framework/Lab001/simulations/eh//config.xml:34"
par myHospitalNetwork.node[12].nic.phy80211p minPowerLevel -110dBm
attr unit dBm
par myHospitalNetwork.node[12].nic.phy80211p timeRXToTX 0s
attr unit s
par myHospitalNetwork.node[12].nic.phy80211p timeRXToSleep 0s
attr unit s
par myHospitalNetwork.node[12].nic.phy80211p timeTXToRX 0s
attr unit s
par myHospitalNetwork.node[12].nic.phy80211p timeTXToSleep 0s
attr unit s
par myHospitalNetwork.node[12].nic.phy80211p timeSleepToRX 0s
attr unit s
par myHospitalNetwork.node[12].nic.phy80211p timeSleepToTX 0s
attr unit s
par myHospitalNetwork.node[12].nic.phy80211p initialRadioState 0
par myHospitalNetwork.node[12].nic.phy80211p radioMinAtt 1
par myHospitalNetwork.node[12].nic.phy80211p radioMaxAtt 0
par myHospitalNetwork.node[12].nic.phy80211p nbRadioChannels 1
par myHospitalNetwork.node[12].nic.phy80211p initialRadioChannel 0
par myHospitalNetwork.node[12].nic.phy80211p ccaThreshold -65dBm
attr unit dBm
par myHospitalNetwork.node[12].nic.phy80211p collectCollisionStatistics false
par myHospitalNetwork.node[12].nic.phy80211p allowTxDuringRx false
scalar myHospitalNetwork.node[12].nic.phy80211p busyTime 0.071380362992553
par myHospitalNetwork.node[12].nic.mac1609_4 typename "\"org.car2x.veins.modules.mac.ieee80211p.Mac1609_4\""
par myHospitalNetwork.node[12].nic.mac1609_4 notAffectedByHostState false
par myHospitalNetwork.node[12].nic.mac1609_4 headerLength 0bit
attr unit bit
par myHospitalNetwork.node[12].nic.mac1609_4 address "\"auto\""
par myHospitalNetwork.node[12].nic.mac1609_4 useServiceChannel true
par myHospitalNetwork.node[12].nic.mac1609_4 serviceChannel 1
par myHospitalNetwork.node[12].nic.mac1609_4 bitrate 6000000bps
attr unit bps
par myHospitalNetwork.node[12].nic.mac1609_4 syncOffset 0.0003s
attr unit s
par myHospitalNetwork.node[12].nic.mac1609_4 txPower 20mW
attr unit mW
par myHospitalNetwork.node[12].nic.mac1609_4 queueSize 0
par myHospitalNetwork.node[12].nic.mac1609_4 dot11RTSThreshold 12000bit
attr unit bit
par myHospitalNetwork.node[12].nic.mac1609_4 dot11ShortRetryLimit 7
par myHospitalNetwork.node[12].nic.mac1609_4 dot11LongRetryLimit 4
par myHospitalNetwork.node[12].nic.mac1609_4 ackLength 112bit
attr unit bit
par myHospitalNetwork.node[12].nic.mac1609_4 useAcks false
par myHospitalNetwork.node[12].nic.mac1609_4 frameErrorRate 0
par myHospitalNetwork.node[12].nic.mac1609_4 ackErrorRate 0
scalar myHospitalNetwork.node[12].nic.mac1609_4 ReceivedUnicastPackets 0
scalar myHospitalNetwork.node[12].nic.mac1609_4 ReceivedBroadcasts 12897
scalar myHospitalNetwork.node[12].nic.mac1609_4 SentPackets 4526
scalar myHospitalNetwork.node[12].nic.mac1609_4 SentAcknowledgements 0
scalar myHospitalNetwork.node[12].nic.mac1609_4 RetriesExceeded 0
scalar myHospitalNetwork.node[12].nic.mac1609_4 SNIRLostPackets 83836
scalar myHospitalNetwork.node[12].nic.mac1609_4 RXTXLostPackets 35001
scalar myHospitalNetwork.node[12].nic.mac1609_4 TotalLostPackets 118837
scalar myHospitalNetwork.node[12].nic.mac1609_4 DroppedPacketsInMac 0
scalar myHospitalNetwork.node[12].nic.mac1609_4 TooLittleTime 96
scalar myHospitalNetwork.node[12].nic.mac1609_4 TimesIntoBackoff 7478
scalar myHospitalNetwork.node[12].nic.mac1609_4 SlotsBackoff 6769
scalar myHospitalNetwork.node[12].nic.mac1609_4 NumInternalContention 0
scalar myHospitalNetwork.node[12].nic.mac1609_4 totalBusyTime 5.292509309586
scalar myHospitalNetwork.node[12].nic.mac1609_4 retriesExceeded:count 0
attr recordingmode count
attr source org_car2x_veins_modules_mac_sigRetriesExceeded
scalar myHospitalNetwork.node[12].nic.mac1609_4 sentAcks:count 0
attr recordingmode count
attr source org_car2x_veins_modules_mac_sigSentAck
scalar myHospitalNetwork.node[12].nic.mac1609_4 sentPackets:count 4526
attr recordingmode count
attr source org_car2x_veins_modules_mac_sigSentPacket
scalar myHospitalNetwork.node[12].nic.mac1609_4 collisions:count 0
attr recordingmode count
attr source org_car2x_veins_modules_mac_sigCollision
scalar myHospitalNetwork.node[12].nic.mac1609_4 channelBusy:timeavg 0.023428549400554
attr recordingmode timeavg
attr source org_car2x_veins_modules_mac_sigChannelBusy
par myHospitalNetwork.node[12].nic typename "\"org.car2x.veins.modules.nic.Nic80211p\""
par myHospitalNetwork.node[12].nic connectionManagerName "\"connectionManager\""
par myHospitalNetwork.node[12].veinsmobility typename "\"org.car2x.veins.modules.mobility.traci.TraCIMobility\""
par myHospitalNetwork.node[12].veinsmobility notAffectedByHostState true
par myHospitalNetwork.node[12].veinsmobility x 0
par myHospitalNetwork.node[12].veinsmobility y 0
par myHospitalNetwork.node[12].veinsmobility z 0
par myHospitalNetwork.node[12].veinsmobility xOrientation 1
par myHospitalNetwork.node[12].veinsmobility yOrientation 0
par myHospitalNetwork.node[12].veinsmobility zOrientation 0
par myHospitalNetwork.node[12].veinsmobility hostPositionOffset 0m
attr unit m
par myHospitalNetwork.node[12].veinsmobility setHostSpeed false
par myHospitalNetwork.node[12].veinsmobility accidentCount 0
par myHospitalNetwork.node[12].veinsmobility accidentStart 58.0004s
attr unit s
par myHospitalNetwork.node[12].veinsmobility accidentDuration "uniform(30s, 60s)"
attr unit s
par myHospitalNetwork.node[12].veinsmobility accidentInterval "uniform(30s, 60s)"
attr unit s
scalar myHospitalNetwork.node[12].veinsmobility startTime 11.5
scalar myHospitalNetwork.node[12].veinsmobility totalTime 225.8
scalar myHospitalNetwork.node[12].veinsmobility stopTime 237.4
scalar myHospitalNetwork.node[12].veinsmobility minSpeed 0
scalar myHospitalNetwork.node[12].veinsmobility maxSpeed 3.996
scalar myHospitalNetwork.node[12].veinsmobility totalDistance 799.79709140442
scalar myHospitalNetwork.node[12].veinsmobility totalCO2Emission 305.22705038426
par myHospitalNetwork.node[12] typename "\"org.car2x.veins.nodes.Car\""
par myHospitalNetwork.node[12] applType "\"AGVControlApp\""
par myHospitalNetwork.node[12] nicType "\"Nic80211p\""
par myHospitalNetwork.node[12] veinsmobilityType "\"org.car2x.veins.modules.mobility.traci.TraCIMobility\""
par myHospitalNetwork.node[16].appl typename "\"lab001.veins_inet.AGVControlApp\""
par myHospitalNetwork.node[16].appl headerLength 80bit
attr unit bit
par myHospitalNetwork.node[16].appl sendBeacons false
par myHospitalNetwork.node[16].appl beaconLengthBits 256bit
attr unit bit
par myHospitalNetwork.node[16].appl beaconUserPriority 7
par myHospitalNetwork.node[16].appl beaconInterval 0.1s
attr unit s
par myHospitalNetwork.node[16].appl dataLengthBits 1024bit
attr unit bit
par myHospitalNetwork.node[16].appl dataOnSch true
par myHospitalNetwork.node[16].appl dataUserPriority 7
par myHospitalNetwork.node[16].appl avoidBeaconSynchronization true
par myHospitalNetwork.node[16].appl sendWSA false
par myHospitalNetwork.node[16].appl wsaLengthBits 250bit
attr unit bit
par myHospitalNetwork.node[16].appl wsaInterval 1s
attr unit s
par myHospitalNetwork.node[16].appl appName "\"My first Veins App!\""
scalar myHospitalNetwork.node[16].appl generatedWSMs 3
scalar myHospitalNetwork.node[16].appl receivedWSMs 0
scalar myHospitalNetwork.node[16].appl generatedBSMs 2066
scalar myHospitalNetwork.node[16].appl receivedBSMs 0
scalar myHospitalNetwork.node[16].appl generatedWSAs 2
scalar myHospitalNetwork.node[16].appl receivedWSAs 0
par myHospitalNetwork.node[16].nic.phy80211p typename "\"org.car2x.veins.modules.phy.PhyLayer80211p\""
par myHospitalNetwork.node[16].nic.phy80211p recordStats false
par myHospitalNetwork.node[16].nic.phy80211p usePropagationDelay true
par myHospitalNetwork.node[16].nic.phy80211p noiseFloor -98dBm
attr unit dBm
par myHospitalNetwork.node[16].nic.phy80211p useNoiseFloor true
par myHospitalNetwork.node[16].nic.phy80211p antenna "<Antenna type=\"SampledAntenna1D\" id=\"monopole\">...</Antenna> at /home/ukraine/veins_framework/Lab001/simulations/eh//antenna.xml:35"
par myHospitalNetwork.node[16].nic.phy80211p antennaOffsetX 0m
attr unit m
par myHospitalNetwork.node[16].nic.phy80211p antennaOffsetY 0m
attr unit m
par myHospitalNetwork.node[16].nic.phy80211p antennaOffsetZ 1.895m
attr unit m
par myHospitalNetwork.node[16].nic.phy80211p antennaOffsetYaw 0rad
attr unit rad
par myHospitalNetwork.node[16].nic.phy80211p analogueModels "<root>...</root> at /home/ukraine/veins_framework/Lab001/simulations/eh//config.xml:34"
par myHospitalNetwork.node[16].nic.phy80211p decider "<root>...</root> at /home/ukraine/veins_framework/Lab001/simulations/eh//config.xml:34"
par myHospitalNetwork.node[16].nic.phy80211p minPowerLevel -110dBm
attr unit dBm
par myHospitalNetwork.node[16].nic.phy80211p timeRXToTX 0s
attr unit s
par myHospitalNetwork.node[16].nic.phy80211p timeRXToSleep 0s
attr unit s
par myHospitalNetwork.node[16].nic.phy80211p timeTXToRX 0s
attr unit s
par myHospitalNetwork.node[16].nic.phy80211p timeTXToSleep 0s
attr unit s
par myHospitalNetwork.node[16].nic.phy80211p timeSleepToRX 0s
attr unit s
par myHospitalNetwork.node[16].nic.phy80211p timeSleepToTX 0s
attr unit s
par myHospitalNetwork.node[16].nic.phy80211p initialRadioState 0
par myHospitalNetwork.node[16].nic.phy80211p radioMinAtt 1
par myHospitalNetwork.node[16].nic.phy80211p radioMaxAtt 0
par myHospitalNetwork.node[16].nic.phy80211p nbRadioChannels 1
par myHospitalNetwork.node[16].nic.phy80211p initialRadioChannel 0
par myHospitalNetwork.node[16].nic.phy80211p ccaThreshold -65dBm
attr unit dBm
par myHospitalNetwork.node[16].nic.phy80211p collectCollisionStatistics false
par myHospitalNetwork.node[16].nic.phy80211p allowTxDuringRx false
scalar myHospitalNetwork.node[16].nic.phy80211p busyTime 0.074657657308887
par myHospitalNetwork.node[16].nic.mac1609_4 typename "\"org.car2x.veins.modules.mac.ieee80211p.Mac1609_4\""
par myHospitalNetwork.node[16].nic.mac1609_4 notAffectedByHostState false
par myHospitalNetwork.node[16].nic.mac1609_4 headerLength 0bit
attr unit bit
par myHospitalNetwork.node[16].nic.mac1609_4 address "\"auto\""
par myHospitalNetwork.node[16].nic.mac1609_4 useServiceChannel true
par myHospitalNetwork.node[16].nic.mac1609_4 serviceChannel 1
par myHospitalNetwork.node[16].nic.mac1609_4 bitrate 6000000bps
attr unit bps
par myHospitalNetwork.node[16].nic.mac1609_4 syncOffset 0.0003s
attr unit s
par myHospitalNetwork.node[16].nic.mac1609_4 txPower 20mW
attr unit mW
par myHospitalNetwork.node[16].nic.mac1609_4 queueSize 0
par myHospitalNetwork.node[16].nic.mac1609_4 dot11RTSThreshold 12000bit
attr unit bit
par myHospitalNetwork.node[16].nic.mac1609_4 dot11ShortRetryLimit 7
par myHospitalNetwork.node[16].nic.mac1609_4 dot11LongRetryLimit 4
par myHospitalNetwork.node[16].nic.mac1609_4 ackLength 112bit
attr unit bit
par myHospitalNetwork.node[16].nic.mac1609_4 useAcks false
par myHospitalNetwork.node[16].nic.mac1609_4 frameErrorRate 0
par myHospitalNetwork.node[16].nic.mac1609_4 ackErrorRate 0
scalar myHospitalNetwork.node[16].nic.mac1609_4 ReceivedUnicastPackets 0
scalar myHospitalNetwork.node[16].nic.mac1609_4 ReceivedBroadcasts 8897
scalar myHospitalNetwork.node[16].nic.mac1609_4 SentPackets 4140
scalar myHospitalNetwork.node[16].nic.mac1609_4 SentAcknowledgements 0
scalar myHospitalNetwork.node[16].nic.mac1609_4 RetriesExceeded 0
scalar myHospitalNetwork.node[16].nic.mac1609_4 SNIRLostPackets 83899
scalar myHospitalNetwork.node[16].nic.mac1609_4 RXTXLostPackets 33545
scalar myHospitalNetwork.node[16].nic.mac1609_4 TotalLostPackets 117444
scalar myHospitalNetwork.node[16].nic.mac1609_4 DroppedPacketsInMac 0
scalar myHospitalNetwork.node[16].nic.mac1609_4 TooLittleTime 41
scalar myHospitalNetwork.node[16].nic.mac1609_4 TimesIntoBackoff 6762
scalar myHospitalNetwork.node[16].nic.mac1609_4 SlotsBackoff 6222
scalar myHospitalNetwork.node[16].nic.mac1609_4 NumInternalContention 0
scalar myHospitalNetwork.node[16].nic.mac1609_4 totalBusyTime 4.854297923721
scalar myHospitalNetwork.node[16].nic.mac1609_4 retriesExceeded:count 0
attr recordingmode count
attr source org_car2x_veins_modules_mac_sigRetriesExceeded
scalar myHospitalNetwork.node[16].nic.mac1609_4 sentAcks:count 0
attr recordingmode count
attr source org_car2x_veins_modules_mac_sigSentAck
scalar myHospitalNetwork.node[16].nic.mac1609_4 sentPackets:count 4140
attr recordingmode count
attr source org_car2x_veins_modules_mac_sigSentPacket
scalar myHospitalNetwork.node[16].nic.mac1609_4 collisions:count 0
attr recordingmode count
attr source org_car2x_veins_modules_mac_sigCollision
scalar myHospitalNetwork.node[16].nic.mac1609_4 channelBusy:timeavg 0.0234961177334
attr recordingmode timeavg
attr source org_car2x_veins_modules_mac_sigChannelBusy
par myHospitalNetwork.node[16].nic typename "\"org.car2x.veins.modules.nic.Nic80211p\""
par myHospitalNetwork.node[16].nic connectionManagerName "\"connectionManager\""
par myHospitalNetwork.node[16].veinsmobility typename "\"org.car2x.veins.modules.mobility.traci.TraCIMobility\""
par myHospitalNetwork.node[16].veinsmobility notAffectedByHostState true
par myHospitalNetwork.node[16].veinsmobility x 0
par myHospitalNetwork.node[16].veinsmobility y 0
par myHospitalNetwork.node[16].veinsmobility z 0
par myHospitalNetwork.node[16].veinsmobility xOrientation 1
par myHospitalNetwork.node[16].veinsmobility yOrientation 0
par myHospitalNetwork.node[16].veinsmobility zOrientation 0
par myHospitalNetwork.node[16].veinsmobility hostPositionOffset 0m
attr unit m
par myHospitalNetwork.node[16].veinsmobility setHostSpeed false
par myHospitalNetwork.node[16].veinsmobility accidentCount 0
par myHospitalNetwork.node[16].veinsmobility accidentStart 37.2222s
attr unit s
par myHospitalNetwork.node[16].veinsmobility accidentDuration "uniform(30s, 60s)"
attr unit s
par myHospitalNetwork.node[16].veinsmobility accidentInterval "uniform(30s, 60s)"
attr unit s
scalar myHospitalNetwork.node[16].veinsmobility startTime 32.1
scalar myHospitalNetwork.node[16].veinsmobility totalTime 206.5
scalar myHospitalNetwork.node[16].veinsmobility stopTime 238.7
scalar myHospitalNetwork.node[16].veinsmobility minSpeed 0
scalar myHospitalNetwork.node[16].veinsmobility maxSpeed 4.2664
scalar myHospitalNetwork.node[16].veinsmobility totalDistance 763.552447942
scalar myHospitalNetwork.node[16].veinsmobility totalCO2Emission 295.24790559118
par myHospitalNetwork.node[16] typename "\"org.car2x.veins.nodes.Car\""
par myHospitalNetwork.node[16] applType "\"AGVControlApp\""
par myHospitalNetwork.node[16] nicType "\"Nic80211p\""
par myHospitalNetwork.node[16] veinsmobilityType "\"org.car2x.veins.modules.mobility.traci.TraCIMobility\""
par myHospitalNetwork.node[6].appl typename "\"lab001.veins_inet.AGVControlApp\""
par myHospitalNetwork.node[6].appl headerLength 80bit
attr unit bit
par myHospitalNetwork.node[6].appl sendBeacons false
par myHospitalNetwork.node[6].appl beaconLengthBits 256bit
attr unit bit
par myHospitalNetwork.node[6].appl beaconUserPriority 7
par myHospitalNetwork.node[6].appl beaconInterval 0.1s
attr unit s
par myHospitalNetwork.node[6].appl dataLengthBits 1024bit
attr unit bit
par myHospitalNetwork.node[6].appl dataOnSch true
par myHospitalNetwork.node[6].appl dataUserPriority 7
par myHospitalNetwork.node[6].appl avoidBeaconSynchronization true
par myHospitalNetwork.node[6].appl sendWSA false
par myHospitalNetwork.node[6].appl wsaLengthBits 250bit
attr unit bit
par myHospitalNetwork.node[6].appl wsaInterval 1s
attr unit s
par myHospitalNetwork.node[6].appl appName "\"My first Veins App!\""
scalar myHospitalNetwork.node[6].appl generatedWSMs 0
scalar myHospitalNetwork.node[6].appl receivedWSMs 0
scalar myHospitalNetwork.node[6].appl generatedBSMs 2340
scalar myHospitalNetwork.node[6].appl receivedBSMs 0
scalar myHospitalNetwork.node[6].appl generatedWSAs 0
scalar myHospitalNetwork.node[6].appl receivedWSAs 0
par myHospitalNetwork.node[6].nic.phy80211p typename "\"org.car2x.veins.modules.phy.PhyLayer80211p\""
par myHospitalNetwork.node[6].nic.phy80211p recordStats false
par myHospitalNetwork.node[6].nic.phy80211p usePropagationDelay true
par myHospitalNetwork.node[6].nic.phy80211p noiseFloor -98dBm
attr unit dBm
par myHospitalNetwork.node[6].nic.phy80211p useNoiseFloor true
par myHospitalNetwork.node[6].nic.phy80211p antenna "<Antenna type=\"SampledAntenna1D\" id=\"monopole\">...</Antenna> at /home/ukraine/veins_framework/Lab001/simulations/eh//antenna.xml:35"
par myHospitalNetwork.node[6].nic.phy80211p antennaOffsetX 0m
attr unit m
par myHospitalNetwork.node[6].nic.phy80211p antennaOffsetY 0m
attr unit m
par myHospitalNetwork.node[6].nic.phy80211p antennaOffsetZ 1.895m
attr unit m
par myHospitalNetwork.node[6].nic.phy80211p antennaOffsetYaw 0rad
attr unit rad
par myHospitalNetwork.node[6].nic.phy80211p analogueModels "<root>...</root> at /home/ukraine/veins_framework/Lab001/simulations/eh//config.xml:34"
par myHospitalNetwork.node[6].nic.phy80211p decider "<root>...</root> at /home/ukraine/veins_framework/Lab001/simulations/eh//config.xml:34"
par myHospitalNetwork.node[6].nic.phy80211p minPowerLevel -110dBm
attr unit dBm
par myHospitalNetwork.node[6].nic.phy80211p timeRXToTX 0s
attr unit s
par myHospitalNetwork.node[6].nic.phy80211p timeRXToSleep 0s
attr unit s
par myHospitalNetwork.node[6].nic.phy80211p timeTXToRX 0s
attr unit s
par myHospitalNetwork.node[6].nic.phy80211p timeTXToSleep 0s
attr unit s
par myHospitalNetwork.node[6].nic.phy80211p timeSleepToRX 0s
attr unit s
par myHospitalNetwork.node[6].nic.phy80211p timeSleepToTX 0s
attr unit s
par myHospitalNetwork.node[6].nic.phy80211p initialRadioState 0
par myHospitalNetwork.node[6].nic.phy80211p radioMinAtt 1
par myHospitalNetwork.node[6].nic.phy80211p radioMaxAtt 0
par myHospitalNetwork.node[6].nic.phy80211p nbRadioChannels 1
par myHospitalNetwork.node[6].nic.phy80211p initialRadioChannel 0
par myHospitalNetwork.node[6].nic.phy80211p ccaThreshold -65dBm
attr unit dBm
par myHospitalNetwork.node[6].nic.phy80211p collectCollisionStatistics false
par myHospitalNetwork.node[6].nic.phy80211p allowTxDuringRx false
scalar myHospitalNetwork.node[6].nic.phy80211p busyTime 0.082342564102666
par myHospitalNetwork.node[6].nic.mac1609_4 typename "\"org.car2x.veins.modules.mac.ieee80211p.Mac1609_4\""
par myHospitalNetwork.node[6].nic.mac1609_4 notAffectedByHostState false
par myHospitalNetwork.node[6].nic.mac1609_4 headerLength 0bit
attr unit bit
par myHospitalNetwork.node[6].nic.mac1609_4 address "\"auto\""
par myHospitalNetwork.node[6].nic.mac1609_4 useServiceChannel true
par myHospitalNetwork.node[6].nic.mac1609_4 serviceChannel 1
par myHospitalNetwork.node[6].nic.mac1609_4 bitrate 6000000bps
attr unit bps
par myHospitalNetwork.node[6].nic.mac1609_4 syncOffset 0.0003s
attr unit s
par myHospitalNetwork.node[6].nic.mac1609_4 txPower 20mW
attr unit mW
par myHospitalNetwork.node[6].nic.mac1609_4 queueSize 0
par myHospitalNetwork.node[6].nic.mac1609_4 dot11RTSThreshold 12000bit
attr unit bit
par myHospitalNetwork.node[6].nic.mac1609_4 dot11ShortRetryLimit 7
par myHospitalNetwork.node[6].nic.mac1609_4 dot11LongRetryLimit 4
par myHospitalNetwork.node[6].nic.mac1609_4 ackLength 112bit
attr unit bit
par myHospitalNetwork.node[6].nic.mac1609_4 useAcks false
par myHospitalNetwork.node[6].nic.mac1609_4 frameErrorRate 0
par myHospitalNetwork.node[6].nic.mac1609_4 ackErrorRate 0
scalar myHospitalNetwork.node[6].nic.mac1609_4 ReceivedUnicastPackets 0
scalar myHospitalNetwork.node[6].nic.mac1609_4 ReceivedBroadcasts 14183
scalar myHospitalNetwork.node[6].nic.mac1609_4 SentPackets 4678
scalar myHospitalNetwork.node[6].nic.mac1609_4 SentAcknowledgements 0
scalar myHospitalNetwork.node[6].nic.mac1609_4 RetriesExceeded 0
scalar myHospitalNetwork.node[6].nic.mac1609_4 SNIRLostPackets 97356
scalar myHospitalNetwork.node[6].nic.mac1609_4 RXTXLostPackets 22533
scalar myHospitalNetwork.node[6].nic.mac1609_4 TotalLostPackets 119889
scalar myHospitalNetwork.node[6].nic.mac1609_4 DroppedPacketsInMac 0
scalar myHospitalNetwork.node[6].nic.mac1609_4 TooLittleTime 2235
scalar myHospitalNetwork.node[6].nic.mac1609_4 TimesIntoBackoff 9356
scalar myHospitalNetwork.node[6].nic.mac1609_4 SlotsBackoff 6914
scalar myHospitalNetwork.node[6].nic.mac1609_4 NumInternalContention 0
scalar myHospitalNetwork.node[6].nic.mac1609_4 totalBusyTime 5.146920768878
scalar myHospitalNetwork.node[6].nic.mac1609_4 retriesExceeded:count 0
attr recordingmode count
attr source org_car2x_veins_modules_mac_sigRetriesExceeded
scalar myHospitalNetwork.node[6].nic.mac1609_4 sentAcks:count 0
attr recordingmode count
attr source org_car2x_veins_modules_mac_sigSentAck
scalar myHospitalNetwork.node[6].nic.mac1609_4 sentPackets:count 4678
attr recordingmode count
attr source org_car2x_veins_modules_mac_sigSentPacket
scalar myHospitalNetwork.node[6].nic.mac1609_4 collisions:count 0
attr recordingmode count
attr source org_car2x_veins_modules_mac_sigCollision
scalar myHospitalNetwork.node[6].nic.mac1609_4 channelBusy:timeavg 0.021995387901185
attr recordingmode timeavg
attr source org_car2x_veins_modules_mac_sigChannelBusy
par myHospitalNetwork.node[6].nic typename "\"org.car2x.veins.modules.nic.Nic80211p\""
par myHospitalNetwork.node[6].nic connectionManagerName "\"connectionManager\""
par myHospitalNetwork.node[6].veinsmobility typename "\"org.car2x.veins.modules.mobility.traci.TraCIMobility\""
par myHospitalNetwork.node[6].veinsmobility notAffectedByHostState true
par myHospitalNetwork.node[6].veinsmobility x 0
par myHospitalNetwork.node[6].veinsmobility y 0
par myHospitalNetwork.node[6].veinsmobility z 0
par myHospitalNetwork.node[6].veinsmobility xOrientation 1
par myHospitalNetwork.node[6].veinsmobility yOrientation 0
par myHospitalNetwork.node[6].veinsmobility zOrientation 0
par myHospitalNetwork.node[6].veinsmobility hostPositionOffset 0m
attr unit m
par myHospitalNetwork.node[6].veinsmobility setHostSpeed false
par myHospitalNetwork.node[6].veinsmobility accidentCount 0
par myHospitalNetwork.node[6].veinsmobility accidentStart 47.5188s
attr unit s
par myHospitalNetwork.node[6].veinsmobility accidentDuration "uniform(30s, 60s)"
attr unit s
par myHospitalNetwork.node[6].veinsmobility accidentInterval "uniform(30s, 60s)"
attr unit s
scalar myHospitalNetwork.node[6].veinsmobility startTime 5.1
scalar myHospitalNetwork.node[6].veinsmobility totalTime 233.9
scalar myHospitalNetwork.node[6].veinsmobility stopTime 239.1
scalar myHospitalNetwork.node[6].veinsmobility minSpeed 0
scalar myHospitalNetwork.node[6].veinsmobility maxSpeed 5.815173
scalar myHospitalNetwork.node[6].veinsmobility totalDistance 869.65472792798
scalar myHospitalNetwork.node[6].veinsmobility totalCO2Emission 356.84034514015
par myHospitalNetwork.node[6] typename "\"org.car2x.veins.nodes.Car\""
par myHospitalNetwork.node[6] applType "\"AGVControlApp\""
par myHospitalNetwork.node[6] nicType "\"Nic80211p\""
par myHospitalNetwork.node[6] veinsmobilityType "\"org.car2x.veins.modules.mobility.traci.TraCIMobility\""
par myHospitalNetwork.node[17].appl typename "\"lab001.veins_inet.AGVControlApp\""
par myHospitalNetwork.node[17].appl headerLength 80bit
attr unit bit
par myHospitalNetwork.node[17].appl sendBeacons false
par myHospitalNetwork.node[17].appl beaconLengthBits 256bit
attr unit bit
par myHospitalNetwork.node[17].appl beaconUserPriority 7
par myHospitalNetwork.node[17].appl beaconInterval 0.1s
attr unit s
par myHospitalNetwork.node[17].appl dataLengthBits 1024bit
attr unit bit
par myHospitalNetwork.node[17].appl dataOnSch true
par myHospitalNetwork.node[17].appl dataUserPriority 7
par myHospitalNetwork.node[17].appl avoidBeaconSynchronization true
par myHospitalNetwork.node[17].appl sendWSA false
par myHospitalNetwork.node[17].appl wsaLengthBits 250bit
attr unit bit
par myHospitalNetwork.node[17].appl wsaInterval 1s
attr unit s
par myHospitalNetwork.node[17].appl appName "\"My first Veins App!\""
scalar myHospitalNetwork.node[17].appl generatedWSMs 0
scalar myHospitalNetwork.node[17].appl receivedWSMs 0
scalar myHospitalNetwork.node[17].appl generatedBSMs 2067
scalar myHospitalNetwork.node[17].appl receivedBSMs 0
scalar myHospitalNetwork.node[17].appl generatedWSAs 0
scalar myHospitalNetwork.node[17].appl receivedWSAs 0
par myHospitalNetwork.node[17].nic.phy80211p typename "\"org.car2x.veins.modules.phy.PhyLayer80211p\""
par myHospitalNetwork.node[17].nic.phy80211p recordStats false
par myHospitalNetwork.node[17].nic.phy80211p usePropagationDelay true
par myHospitalNetwork.node[17].nic.phy80211p noiseFloor -98dBm
attr unit dBm
par myHospitalNetwork.node[17].nic.phy80211p useNoiseFloor true
par myHospitalNetwork.node[17].nic.phy80211p antenna "<Antenna type=\"SampledAntenna1D\" id=\"monopole\">...</Antenna> at /home/ukraine/veins_framework/Lab001/simulations/eh//antenna.xml:35"
par myHospitalNetwork.node[17].nic.phy80211p antennaOffsetX 0m
attr unit m
par myHospitalNetwork.node[17].nic.phy80211p antennaOffsetY 0m
attr unit m
par myHospitalNetwork.node[17].nic.phy80211p antennaOffsetZ 1.895m
attr unit m
par myHospitalNetwork.node[17].nic.phy80211p antennaOffsetYaw 0rad
attr unit rad
par myHospitalNetwork.node[17].nic.phy80211p analogueModels "<root>...</root> at /home/ukraine/veins_framework/Lab001/simulations/eh//config.xml:34"
par myHospitalNetwork.node[17].nic.phy80211p decider "<root>...</root> at /home/ukraine/veins_framework/Lab001/simulations/eh//config.xml:34"
par myHospitalNetwork.node[17].nic.phy80211p minPowerLevel -110dBm
attr unit dBm
par myHospitalNetwork.node[17].nic.phy80211p timeRXToTX 0s
attr unit s
par myHospitalNetwork.node[17].nic.phy80211p timeRXToSleep 0s
attr unit s
par myHospitalNetwork.node[17].nic.phy80211p timeTXToRX 0s
attr unit s
par myHospitalNetwork.node[17].nic.phy80211p timeTXToSleep 0s
attr unit s
par myHospitalNetwork.node[17].nic.phy80211p timeSleepToRX 0s
attr unit s
par myHospitalNetwork.node[17].nic.phy80211p timeSleepToTX 0s
attr unit s
par myHospitalNetwork.node[17].nic.phy80211p initialRadioState 0
par myHospitalNetwork.node[17].nic.phy80211p radioMinAtt 1
par myHospitalNetwork.node[17].nic.phy80211p radioMaxAtt 0
par myHospitalNetwork.node[17].nic.phy80211p nbRadioChannels 1
par myHospitalNetwork.node[17].nic.phy80211p initialRadioChannel 0
par myHospitalNetwork.node[17].nic.phy80211p ccaThreshold -65dBm
attr unit dBm
par myHospitalNetwork.node[17].nic.phy80211p collectCollisionStatistics false
par myHospitalNetwork.node[17].nic.phy80211p allowTxDuringRx false
scalar myHospitalNetwork.node[17].nic.phy80211p busyTime 0.088466647315053
par myHospitalNetwork.node[17].nic.mac1609_4 typename "\"org.car2x.veins.modules.mac.ieee80211p.Mac1609_4\""
par myHospitalNetwork.node[17].nic.mac1609_4 notAffectedByHostState false
par myHospitalNetwork.node[17].nic.mac1609_4 headerLength 0bit
attr unit bit
par myHospitalNetwork.node[17].nic.mac1609_4 address "\"auto\""
par myHospitalNetwork.node[17].nic.mac1609_4 useServiceChannel true
par myHospitalNetwork.node[17].nic.mac1609_4 serviceChannel 1
par myHospitalNetwork.node[17].nic.mac1609_4 bitrate 6000000bps
attr unit bps
par myHospitalNetwork.node[17].nic.mac1609_4 syncOffset 0.0003s
attr unit s
par myHospitalNetwork.node[17].nic.mac1609_4 txPower 20mW
attr unit mW
par myHospitalNetwork.node[17].nic.mac1609_4 queueSize 0
par myHospitalNetwork.node[17].nic.mac1609_4 dot11RTSThreshold 12000bit
attr unit bit
par myHospitalNetwork.node[17].nic.mac1609_4 dot11ShortRetryLimit 7
par myHospitalNetwork.node[17].nic.mac1609_4 dot11LongRetryLimit 4
par myHospitalNetwork.node[17].nic.mac1609_4 ackLength 112bit
attr unit bit
par myHospitalNetwork.node[17].nic.mac1609_4 useAcks false
par myHospitalNetwork.node[17].nic.mac1609_4 frameErrorRate 0
par myHospitalNetwork.node[17].nic.mac1609_4 ackErrorRate 0
scalar myHospitalNetwork.node[17].nic.mac1609_4 ReceivedUnicastPackets 0
scalar myHospitalNetwork.node[17].nic.mac1609_4 ReceivedBroadcasts 9810
scalar myHospitalNetwork.node[17].nic.mac1609_4 SentPackets 4132
scalar myHospitalNetwork.node[17].nic.mac1609_4 SentAcknowledgements 0
scalar myHospitalNetwork.node[17].nic.mac1609_4 RetriesExceeded 0
scalar myHospitalNetwork.node[17].nic.mac1609_4 SNIRLostPackets 96412
scalar myHospitalNetwork.node[17].nic.mac1609_4 RXTXLostPackets 21283
scalar myHospitalNetwork.node[17].nic.mac1609_4 TotalLostPackets 117695
scalar myHospitalNetwork.node[17].nic.mac1609_4 DroppedPacketsInMac 0
scalar myHospitalNetwork.node[17].nic.mac1609_4 TooLittleTime 1987
scalar myHospitalNetwork.node[17].nic.mac1609_4 TimesIntoBackoff 8264
scalar myHospitalNetwork.node[17].nic.mac1609_4 SlotsBackoff 6253
scalar myHospitalNetwork.node[17].nic.mac1609_4 NumInternalContention 0
scalar myHospitalNetwork.node[17].nic.mac1609_4 totalBusyTime 4.711135648683
scalar myHospitalNetwork.node[17].nic.mac1609_4 retriesExceeded:count 0
attr recordingmode count
attr source org_car2x_veins_modules_mac_sigRetriesExceeded
scalar myHospitalNetwork.node[17].nic.mac1609_4 sentAcks:count 0
attr recordingmode count
attr source org_car2x_veins_modules_mac_sigSentAck
scalar myHospitalNetwork.node[17].nic.mac1609_4 sentPackets:count 4132
attr recordingmode count
attr source org_car2x_veins_modules_mac_sigSentPacket
scalar myHospitalNetwork.node[17].nic.mac1609_4 collisions:count 0
attr recordingmode count
attr source org_car2x_veins_modules_mac_sigCollision
scalar myHospitalNetwork.node[17].nic.mac1609_4 channelBusy:timeavg 0.02279214150306
attr recordingmode timeavg
attr source org_car2x_veins_modules_mac_sigChannelBusy
par myHospitalNetwork.node[17].nic typename "\"org.car2x.veins.modules.nic.Nic80211p\""
par myHospitalNetwork.node[17].nic connectionManagerName "\"connectionManager\""
par myHospitalNetwork.node[17].veinsmobility typename "\"org.car2x.veins.modules.mobility.traci.TraCIMobility\""
par myHospitalNetwork.node[17].veinsmobility notAffectedByHostState true
par myHospitalNetwork.node[17].veinsmobility x 0
par myHospitalNetwork.node[17].veinsmobility y 0
par myHospitalNetwork.node[17].veinsmobility z 0
par myHospitalNetwork.node[17].veinsmobility xOrientation 1
par myHospitalNetwork.node[17].veinsmobility yOrientation 0
par myHospitalNetwork.node[17].veinsmobility zOrientation 0
par myHospitalNetwork.node[17].veinsmobility hostPositionOffset 0m
attr unit m
par myHospitalNetwork.node[17].veinsmobility setHostSpeed false
par myHospitalNetwork.node[17].veinsmobility accidentCount 0
par myHospitalNetwork.node[17].veinsmobility accidentStart 50.9716s
attr unit s
par myHospitalNetwork.node[17].veinsmobility accidentDuration "uniform(30s, 60s)"
attr unit s
par myHospitalNetwork.node[17].veinsmobility accidentInterval "uniform(30s, 60s)"
attr unit s
scalar myHospitalNetwork.node[17].veinsmobility startTime 38.1
scalar myHospitalNetwork.node[17].veinsmobility totalTime 206.6
scalar myHospitalNetwork.node[17].veinsmobility stopTime 244.8
scalar myHospitalNetwork.node[17].veinsmobility minSpeed 0
scalar myHospitalNetwork.node[17].veinsmobility maxSpeed 4.162
scalar myHospitalNetwork.node[17].veinsmobility totalDistance 794.0859547514
scalar myHospitalNetwork.node[17].veinsmobility totalCO2Emission 288.54169489493
par myHospitalNetwork.node[17] typename "\"org.car2x.veins.nodes.Car\""
par myHospitalNetwork.node[17] applType "\"AGVControlApp\""
par myHospitalNetwork.node[17] nicType "\"Nic80211p\""
par myHospitalNetwork.node[17] veinsmobilityType "\"org.car2x.veins.modules.mobility.traci.TraCIMobility\""
par myHospitalNetwork.node[8].appl typename "\"lab001.veins_inet.AGVControlApp\""
par myHospitalNetwork.node[8].appl headerLength 80bit
attr unit bit
par myHospitalNetwork.node[8].appl sendBeacons false
par myHospitalNetwork.node[8].appl beaconLengthBits 256bit
attr unit bit
par myHospitalNetwork.node[8].appl beaconUserPriority 7
par myHospitalNetwork.node[8].appl beaconInterval 0.1s
attr unit s
par myHospitalNetwork.node[8].appl dataLengthBits 1024bit
attr unit bit
par myHospitalNetwork.node[8].appl dataOnSch true
par myHospitalNetwork.node[8].appl dataUserPriority 7
par myHospitalNetwork.node[8].appl avoidBeaconSynchronization true
par myHospitalNetwork.node[8].appl sendWSA false
par myHospitalNetwork.node[8].appl wsaLengthBits 250bit
attr unit bit
par myHospitalNetwork.node[8].appl wsaInterval 1s
attr unit s
par myHospitalNetwork.node[8].appl appName "\"My first Veins App!\""
scalar myHospitalNetwork.node[8].appl generatedWSMs 0
scalar myHospitalNetwork.node[8].appl receivedWSMs 0
scalar myHospitalNetwork.node[8].appl generatedBSMs 2435
scalar myHospitalNetwork.node[8].appl receivedBSMs 0
scalar myHospitalNetwork.node[8].appl generatedWSAs 0
scalar myHospitalNetwork.node[8].appl receivedWSAs 0
par myHospitalNetwork.node[8].nic.phy80211p typename "\"org.car2x.veins.modules.phy.PhyLayer80211p\""
par myHospitalNetwork.node[8].nic.phy80211p recordStats false
par myHospitalNetwork.node[8].nic.phy80211p usePropagationDelay true
par myHospitalNetwork.node[8].nic.phy80211p noiseFloor -98dBm
attr unit dBm
par myHospitalNetwork.node[8].nic.phy80211p useNoiseFloor true
par myHospitalNetwork.node[8].nic.phy80211p antenna "<Antenna type=\"SampledAntenna1D\" id=\"monopole\">...</Antenna> at /home/ukraine/veins_framework/Lab001/simulations/eh//antenna.xml:35"
par myHospitalNetwork.node[8].nic.phy80211p antennaOffsetX 0m
attr unit m
par myHospitalNetwork.node[8].nic.phy80211p antennaOffsetY 0m
attr unit m
par myHospitalNetwork.node[8].nic.phy80211p antennaOffsetZ 1.895m
attr unit m
par myHospitalNetwork.node[8].nic.phy80211p antennaOffsetYaw 0rad
attr unit rad
par myHospitalNetwork.node[8].nic.phy80211p analogueModels "<root>...</root> at /home/ukraine/veins_framework/Lab001/simulations/eh//config.xml:34"
par myHospitalNetwork.node[8].nic.phy80211p decider "<root>...</root> at /home/ukraine/veins_framework/Lab001/simulations/eh//config.xml:34"
par myHospitalNetwork.node[8].nic.phy80211p minPowerLevel -110dBm
attr unit dBm
par myHospitalNetwork.node[8].nic.phy80211p timeRXToTX 0s
attr unit s
par myHospitalNetwork.node[8].nic.phy80211p timeRXToSleep 0s
attr unit s
par myHospitalNetwork.node[8].nic.phy80211p timeTXToRX 0s
attr unit s
par myHospitalNetwork.node[8].nic.phy80211p timeTXToSleep 0s
attr unit s
par myHospitalNetwork.node[8].nic.phy80211p timeSleepToRX 0s
attr unit s
par myHospitalNetwork.node[8].nic.phy80211p timeSleepToTX 0s
attr unit s
par myHospitalNetwork.node[8].nic.phy80211p initialRadioState 0
par myHospitalNetwork.node[8].nic.phy80211p radioMinAtt 1
par myHospitalNetwork.node[8].nic.phy80211p radioMaxAtt 0
par myHospitalNetwork.node[8].nic.phy80211p nbRadioChannels 1
par myHospitalNetwork.node[8].nic.phy80211p initialRadioChannel 0
par myHospitalNetwork.node[8].nic.phy80211p ccaThreshold -65dBm
attr unit dBm
par myHospitalNetwork.node[8].nic.phy80211p collectCollisionStatistics false
par myHospitalNetwork.node[8].nic.phy80211p allowTxDuringRx false
scalar myHospitalNetwork.node[8].nic.phy80211p busyTime 0.082345724846101
par myHospitalNetwork.node[8].nic.mac1609_4 typename "\"org.car2x.veins.modules.mac.ieee80211p.Mac1609_4\""
par myHospitalNetwork.node[8].nic.mac1609_4 notAffectedByHostState false
par myHospitalNetwork.node[8].nic.mac1609_4 headerLength 0bit
attr unit bit
par myHospitalNetwork.node[8].nic.mac1609_4 address "\"auto\""
par myHospitalNetwork.node[8].nic.mac1609_4 useServiceChannel true
par myHospitalNetwork.node[8].nic.mac1609_4 serviceChannel 1
par myHospitalNetwork.node[8].nic.mac1609_4 bitrate 6000000bps
attr unit bps
par myHospitalNetwork.node[8].nic.mac1609_4 syncOffset 0.0003s
attr unit s
par myHospitalNetwork.node[8].nic.mac1609_4 txPower 20mW
attr unit mW
par myHospitalNetwork.node[8].nic.mac1609_4 queueSize 0
par myHospitalNetwork.node[8].nic.mac1609_4 dot11RTSThreshold 12000bit
attr unit bit
par myHospitalNetwork.node[8].nic.mac1609_4 dot11ShortRetryLimit 7
par myHospitalNetwork.node[8].nic.mac1609_4 dot11LongRetryLimit 4
par myHospitalNetwork.node[8].nic.mac1609_4 ackLength 112bit
attr unit bit
par myHospitalNetwork.node[8].nic.mac1609_4 useAcks false
par myHospitalNetwork.node[8].nic.mac1609_4 frameErrorRate 0
par myHospitalNetwork.node[8].nic.mac1609_4 ackErrorRate 0
scalar myHospitalNetwork.node[8].nic.mac1609_4 ReceivedUnicastPackets 0
scalar myHospitalNetwork.node[8].nic.mac1609_4 ReceivedBroadcasts 13910
scalar myHospitalNetwork.node[8].nic.mac1609_4 SentPackets 4868
scalar myHospitalNetwork.node[8].nic.mac1609_4 SentAcknowledgements 0
scalar myHospitalNetwork.node[8].nic.mac1609_4 RetriesExceeded 0
scalar myHospitalNetwork.node[8].nic.mac1609_4 SNIRLostPackets 102135
scalar myHospitalNetwork.node[8].nic.mac1609_4 RXTXLostPackets 23659
scalar myHospitalNetwork.node[8].nic.mac1609_4 TotalLostPackets 125794
scalar myHospitalNetwork.node[8].nic.mac1609_4 DroppedPacketsInMac 0
scalar myHospitalNetwork.node[8].nic.mac1609_4 TooLittleTime 2325
scalar myHospitalNetwork.node[8].nic.mac1609_4 TimesIntoBackoff 9736
scalar myHospitalNetwork.node[8].nic.mac1609_4 SlotsBackoff 7256
scalar myHospitalNetwork.node[8].nic.mac1609_4 NumInternalContention 0
scalar myHospitalNetwork.node[8].nic.mac1609_4 totalBusyTime 5.467616119421
scalar myHospitalNetwork.node[8].nic.mac1609_4 retriesExceeded:count 0
attr recordingmode count
attr source org_car2x_veins_modules_mac_sigRetriesExceeded
scalar myHospitalNetwork.node[8].nic.mac1609_4 sentAcks:count 0
attr recordingmode count
attr source org_car2x_veins_modules_mac_sigSentAck
scalar myHospitalNetwork.node[8].nic.mac1609_4 sentPackets:count 4868
attr recordingmode count
attr source org_car2x_veins_modules_mac_sigSentPacket
scalar myHospitalNetwork.node[8].nic.mac1609_4 collisions:count 0
attr recordingmode count
attr source org_car2x_veins_modules_mac_sigCollision
scalar myHospitalNetwork.node[8].nic.mac1609_4 channelBusy:timeavg 0.022454275644436
attr recordingmode timeavg
attr source org_car2x_veins_modules_mac_sigChannelBusy
par myHospitalNetwork.node[8].nic typename "\"org.car2x.veins.modules.nic.Nic80211p\""
par myHospitalNetwork.node[8].nic connectionManagerName "\"connectionManager\""
par myHospitalNetwork.node[8].veinsmobility typename "\"org.car2x.veins.modules.mobility.traci.TraCIMobility\""
par myHospitalNetwork.node[8].veinsmobility notAffectedByHostState true
par myHospitalNetwork.node[8].veinsmobility x 0
par myHospitalNetwork.node[8].veinsmobility y 0
par myHospitalNetwork.node[8].veinsmobility z 0
par myHospitalNetwork.node[8].veinsmobility xOrientation 1
par myHospitalNetwork.node[8].veinsmobility yOrientation 0
par myHospitalNetwork.node[8].veinsmobility zOrientation 0
par myHospitalNetwork.node[8].veinsmobility hostPositionOffset 0m
attr unit m
par myHospitalNetwork.node[8].veinsmobility setHostSpeed false
par myHospitalNetwork.node[8].veinsmobility accidentCount 0
par myHospitalNetwork.node[8].veinsmobility accidentStart 47.2914s
attr unit s
par myHospitalNetwork.node[8].veinsmobility accidentDuration "uniform(30s, 60s)"
attr unit s
par myHospitalNetwork.node[8].veinsmobility accidentInterval "uniform(30s, 60s)"
attr unit s
scalar myHospitalNetwork.node[8].veinsmobility startTime 7.1
scalar myHospitalNetwork.node[8].veinsmobility totalTime 243.4
scalar myHospitalNetwork.node[8].veinsmobility stopTime 250.6
scalar myHospitalNetwork.node[8].veinsmobility minSpeed 0
scalar myHospitalNetwork.node[8].veinsmobility maxSpeed 5.433903
scalar myHospitalNetwork.node[8].veinsmobility totalDistance 901.1402006056
scalar myHospitalNetwork.node[8].veinsmobility totalCO2Emission 337.95791285938
par myHospitalNetwork.node[8] typename "\"org.car2x.veins.nodes.Car\""
par myHospitalNetwork.node[8] applType "\"AGVControlApp\""
par myHospitalNetwork.node[8] nicType "\"Nic80211p\""
par myHospitalNetwork.node[8] veinsmobilityType "\"org.car2x.veins.modules.mobility.traci.TraCIMobility\""
par myHospitalNetwork.node[19].appl typename "\"lab001.veins_inet.AGVControlApp\""
par myHospitalNetwork.node[19].appl headerLength 80bit
attr unit bit
par myHospitalNetwork.node[19].appl sendBeacons false
par myHospitalNetwork.node[19].appl beaconLengthBits 256bit
attr unit bit
par myHospitalNetwork.node[19].appl beaconUserPriority 7
par myHospitalNetwork.node[19].appl beaconInterval 0.1s
attr unit s
par myHospitalNetwork.node[19].appl dataLengthBits 1024bit
attr unit bit
par myHospitalNetwork.node[19].appl dataOnSch true
par myHospitalNetwork.node[19].appl dataUserPriority 7
par myHospitalNetwork.node[19].appl avoidBeaconSynchronization true
par myHospitalNetwork.node[19].appl sendWSA false
par myHospitalNetwork.node[19].appl wsaLengthBits 250bit
attr unit bit
par myHospitalNetwork.node[19].appl wsaInterval 1s
attr unit s
par myHospitalNetwork.node[19].appl appName "\"My first Veins App!\""
scalar myHospitalNetwork.node[19].appl generatedWSMs 0
scalar myHospitalNetwork.node[19].appl receivedWSMs 0
scalar myHospitalNetwork.node[19].appl generatedBSMs 1956
scalar myHospitalNetwork.node[19].appl receivedBSMs 0
scalar myHospitalNetwork.node[19].appl generatedWSAs 0
scalar myHospitalNetwork.node[19].appl receivedWSAs 0
par myHospitalNetwork.node[19].nic.phy80211p typename "\"org.car2x.veins.modules.phy.PhyLayer80211p\""
par myHospitalNetwork.node[19].nic.phy80211p recordStats false
par myHospitalNetwork.node[19].nic.phy80211p usePropagationDelay true
par myHospitalNetwork.node[19].nic.phy80211p noiseFloor -98dBm
attr unit dBm
par myHospitalNetwork.node[19].nic.phy80211p useNoiseFloor true
[...]
par myHospitalNetwork.node[5].nic.phy80211p radioMinAtt 1
par myHospitalNetwork.node[5].nic.phy80211p radioMaxAtt 0
par myHospitalNetwork.node[5].nic.phy80211p nbRadioChannels 1
par myHospitalNetwork.node[5].nic.phy80211p initialRadioChannel 0
par myHospitalNetwork.node[5].nic.phy80211p ccaThreshold -65dBm
attr unit dBm
par myHospitalNetwork.node[5].nic.phy80211p collectCollisionStatistics false
par myHospitalNetwork.node[5].nic.phy80211p allowTxDuringRx false
scalar myHospitalNetwork.node[5].nic.phy80211p busyTime 0.078183681726341
par myHospitalNetwork.node[5].nic.mac1609_4 typename "\"org.car2x.veins.modules.mac.ieee80211p.Mac1609_4\""
par myHospitalNetwork.node[5].nic.mac1609_4 notAffectedByHostState false
par myHospitalNetwork.node[5].nic.mac1609_4 headerLength 0bit
attr unit bit
par myHospitalNetwork.node[5].nic.mac1609_4 address "\"auto\""
par myHospitalNetwork.node[5].nic.mac1609_4 useServiceChannel true
par myHospitalNetwork.node[5].nic.mac1609_4 serviceChannel 1
par myHospitalNetwork.node[5].nic.mac1609_4 bitrate 6000000bps
attr unit bps
par myHospitalNetwork.node[5].nic.mac1609_4 syncOffset 0.0003s
attr unit s
par myHospitalNetwork.node[5].nic.mac1609_4 txPower 20mW
attr unit mW
par myHospitalNetwork.node[5].nic.mac1609_4 queueSize 0
par myHospitalNetwork.node[5].nic.mac1609_4 dot11RTSThreshold 12000bit
attr unit bit
par myHospitalNetwork.node[5].nic.mac1609_4 dot11ShortRetryLimit 7
par myHospitalNetwork.node[5].nic.mac1609_4 dot11LongRetryLimit 4
par myHospitalNetwork.node[5].nic.mac1609_4 ackLength 112bit
attr unit bit
par myHospitalNetwork.node[5].nic.mac1609_4 useAcks false
par myHospitalNetwork.node[5].nic.mac1609_4 frameErrorRate 0
par myHospitalNetwork.node[5].nic.mac1609_4 ackErrorRate 0
scalar myHospitalNetwork.node[5].nic.mac1609_4 ReceivedUnicastPackets 0
scalar myHospitalNetwork.node[5].nic.mac1609_4 ReceivedBroadcasts 15683
scalar myHospitalNetwork.node[5].nic.mac1609_4 SentPackets 5940
scalar myHospitalNetwork.node[5].nic.mac1609_4 SentAcknowledgements 0
scalar myHospitalNetwork.node[5].nic.mac1609_4 RetriesExceeded 0
scalar myHospitalNetwork.node[5].nic.mac1609_4 SNIRLostPackets 118636
scalar myHospitalNetwork.node[5].nic.mac1609_4 RXTXLostPackets 26720
scalar myHospitalNetwork.node[5].nic.mac1609_4 TotalLostPackets 145356
scalar myHospitalNetwork.node[5].nic.mac1609_4 DroppedPacketsInMac 0
scalar myHospitalNetwork.node[5].nic.mac1609_4 TooLittleTime 5622
scalar myHospitalNetwork.node[5].nic.mac1609_4 TimesIntoBackoff 11870
scalar myHospitalNetwork.node[5].nic.mac1609_4 SlotsBackoff 9060
scalar myHospitalNetwork.node[5].nic.mac1609_4 NumInternalContention 0
scalar myHospitalNetwork.node[5].nic.mac1609_4 totalBusyTime 6.44935680862
scalar myHospitalNetwork.node[5].nic.mac1609_4 retriesExceeded:count 0
attr recordingmode count
attr source org_car2x_veins_modules_mac_sigRetriesExceeded
scalar myHospitalNetwork.node[5].nic.mac1609_4 sentAcks:count 0
attr recordingmode count
attr source org_car2x_veins_modules_mac_sigSentAck
scalar myHospitalNetwork.node[5].nic.mac1609_4 sentPackets:count 5940
attr recordingmode count
attr source org_car2x_veins_modules_mac_sigSentPacket
scalar myHospitalNetwork.node[5].nic.mac1609_4 collisions:count 0
attr recordingmode count
attr source org_car2x_veins_modules_mac_sigCollision
scalar myHospitalNetwork.node[5].nic.mac1609_4 channelBusy:timeavg 0.021744291330473
attr recordingmode timeavg
attr source org_car2x_veins_modules_mac_sigChannelBusy
par myHospitalNetwork.node[5].nic typename "\"org.car2x.veins.modules.nic.Nic80211p\""
par myHospitalNetwork.node[5].nic connectionManagerName "\"connectionManager\""
par myHospitalNetwork.node[5].veinsmobility typename "\"org.car2x.veins.modules.mobility.traci.TraCIMobility\""
par myHospitalNetwork.node[5].veinsmobility notAffectedByHostState true
par myHospitalNetwork.node[5].veinsmobility x 0
par myHospitalNetwork.node[5].veinsmobility y 0
par myHospitalNetwork.node[5].veinsmobility z 0
par myHospitalNetwork.node[5].veinsmobility xOrientation 1
par myHospitalNetwork.node[5].veinsmobility yOrientation 0
par myHospitalNetwork.node[5].veinsmobility zOrientation 0
par myHospitalNetwork.node[5].veinsmobility hostPositionOffset 0m
attr unit m
par myHospitalNetwork.node[5].veinsmobility setHostSpeed false
par myHospitalNetwork.node[5].veinsmobility accidentCount 0
par myHospitalNetwork.node[5].veinsmobility accidentStart 45.574s
attr unit s
par myHospitalNetwork.node[5].veinsmobility accidentDuration "uniform(30s, 60s)"
attr unit s
par myHospitalNetwork.node[5].veinsmobility accidentInterval "uniform(30s, 60s)"
attr unit s
scalar myHospitalNetwork.node[5].veinsmobility startTime 4.1
scalar myHospitalNetwork.node[5].veinsmobility totalTime 296.5
scalar myHospitalNetwork.node[5].veinsmobility stopTime 300.7
scalar myHospitalNetwork.node[5].veinsmobility minSpeed 0
scalar myHospitalNetwork.node[5].veinsmobility maxSpeed 6.61223
scalar myHospitalNetwork.node[5].veinsmobility totalDistance 990.19323370699
scalar myHospitalNetwork.node[5].veinsmobility totalCO2Emission 401.50213528324
par myHospitalNetwork.node[5] typename "\"org.car2x.veins.nodes.Car\""
par myHospitalNetwork.node[5] applType "\"AGVControlApp\""
par myHospitalNetwork.node[5] nicType "\"Nic80211p\""
par myHospitalNetwork.node[5] veinsmobilityType "\"org.car2x.veins.modules.mobility.traci.TraCIMobility\""
par myHospitalNetwork.node[4].appl typename "\"lab001.veins_inet.AGVControlApp\""
par myHospitalNetwork.node[4].appl headerLength 80bit
attr unit bit
par myHospitalNetwork.node[4].appl sendBeacons false
par myHospitalNetwork.node[4].appl beaconLengthBits 256bit
attr unit bit
par myHospitalNetwork.node[4].appl beaconUserPriority 7
par myHospitalNetwork.node[4].appl beaconInterval 0.1s
attr unit s
par myHospitalNetwork.node[4].appl dataLengthBits 1024bit
attr unit bit
par myHospitalNetwork.node[4].appl dataOnSch true
par myHospitalNetwork.node[4].appl dataUserPriority 7
par myHospitalNetwork.node[4].appl avoidBeaconSynchronization true
par myHospitalNetwork.node[4].appl sendWSA false
par myHospitalNetwork.node[4].appl wsaLengthBits 250bit
attr unit bit
par myHospitalNetwork.node[4].appl wsaInterval 1s
attr unit s
par myHospitalNetwork.node[4].appl appName "\"My first Veins App!\""
scalar myHospitalNetwork.node[4].appl generatedWSMs 0
scalar myHospitalNetwork.node[4].appl receivedWSMs 0
scalar myHospitalNetwork.node[4].appl generatedBSMs 2992
scalar myHospitalNetwork.node[4].appl receivedBSMs 0
scalar myHospitalNetwork.node[4].appl generatedWSAs 0
scalar myHospitalNetwork.node[4].appl receivedWSAs 0
par myHospitalNetwork.node[4].nic.phy80211p typename "\"org.car2x.veins.modules.phy.PhyLayer80211p\""
par myHospitalNetwork.node[4].nic.phy80211p recordStats false
par myHospitalNetwork.node[4].nic.phy80211p usePropagationDelay true
par myHospitalNetwork.node[4].nic.phy80211p noiseFloor -98dBm
attr unit dBm
par myHospitalNetwork.node[4].nic.phy80211p useNoiseFloor true
par myHospitalNetwork.node[4].nic.phy80211p antenna "<Antenna type=\"SampledAntenna1D\" id=\"monopole\">...</Antenna> at /home/ukraine/veins_framework/Lab001/simulations/eh//antenna.xml:35"
par myHospitalNetwork.node[4].nic.phy80211p antennaOffsetX 0m
attr unit m
par myHospitalNetwork.node[4].nic.phy80211p antennaOffsetY 0m
attr unit m
par myHospitalNetwork.node[4].nic.phy80211p antennaOffsetZ 1.895m
attr unit m
par myHospitalNetwork.node[4].nic.phy80211p antennaOffsetYaw 0rad
attr unit rad
par myHospitalNetwork.node[4].nic.phy80211p analogueModels "<root>...</root> at /home/ukraine/veins_framework/Lab001/simulations/eh//config.xml:34"
par myHospitalNetwork.node[4].nic.phy80211p decider "<root>...</root> at /home/ukraine/veins_framework/Lab001/simulations/eh//config.xml:34"
par myHospitalNetwork.node[4].nic.phy80211p minPowerLevel -110dBm
attr unit dBm
par myHospitalNetwork.node[4].nic.phy80211p timeRXToTX 0s
attr unit s
par myHospitalNetwork.node[4].nic.phy80211p timeRXToSleep 0s
attr unit s
par myHospitalNetwork.node[4].nic.phy80211p timeTXToRX 0s
attr unit s
par myHospitalNetwork.node[4].nic.phy80211p timeTXToSleep 0s
attr unit s
par myHospitalNetwork.node[4].nic.phy80211p timeSleepToRX 0s
attr unit s
par myHospitalNetwork.node[4].nic.phy80211p timeSleepToTX 0s
attr unit s
par myHospitalNetwork.node[4].nic.phy80211p initialRadioState 0
par myHospitalNetwork.node[4].nic.phy80211p radioMinAtt 1
par myHospitalNetwork.node[4].nic.phy80211p radioMaxAtt 0
par myHospitalNetwork.node[4].nic.phy80211p nbRadioChannels 1
par myHospitalNetwork.node[4].nic.phy80211p initialRadioChannel 0
par myHospitalNetwork.node[4].nic.phy80211p ccaThreshold -65dBm
attr unit dBm
par myHospitalNetwork.node[4].nic.phy80211p collectCollisionStatistics false
par myHospitalNetwork.node[4].nic.phy80211p allowTxDuringRx false
scalar myHospitalNetwork.node[4].nic.phy80211p busyTime 0.084810026738095
par myHospitalNetwork.node[4].nic.mac1609_4 typename "\"org.car2x.veins.modules.mac.ieee80211p.Mac1609_4\""
par myHospitalNetwork.node[4].nic.mac1609_4 notAffectedByHostState false
par myHospitalNetwork.node[4].nic.mac1609_4 headerLength 0bit
attr unit bit
par myHospitalNetwork.node[4].nic.mac1609_4 address "\"auto\""
par myHospitalNetwork.node[4].nic.mac1609_4 useServiceChannel true
par myHospitalNetwork.node[4].nic.mac1609_4 serviceChannel 1
par myHospitalNetwork.node[4].nic.mac1609_4 bitrate 6000000bps
attr unit bps
par myHospitalNetwork.node[4].nic.mac1609_4 syncOffset 0.0003s
attr unit s
par myHospitalNetwork.node[4].nic.mac1609_4 txPower 20mW
attr unit mW
par myHospitalNetwork.node[4].nic.mac1609_4 queueSize 0
par myHospitalNetwork.node[4].nic.mac1609_4 dot11RTSThreshold 12000bit
attr unit bit
par myHospitalNetwork.node[4].nic.mac1609_4 dot11ShortRetryLimit 7
par myHospitalNetwork.node[4].nic.mac1609_4 dot11LongRetryLimit 4
par myHospitalNetwork.node[4].nic.mac1609_4 ackLength 112bit
attr unit bit
par myHospitalNetwork.node[4].nic.mac1609_4 useAcks false
par myHospitalNetwork.node[4].nic.mac1609_4 frameErrorRate 0
par myHospitalNetwork.node[4].nic.mac1609_4 ackErrorRate 0
scalar myHospitalNetwork.node[4].nic.mac1609_4 ReceivedUnicastPackets 0
scalar myHospitalNetwork.node[4].nic.mac1609_4 ReceivedBroadcasts 14987
scalar myHospitalNetwork.node[4].nic.mac1609_4 SentPackets 5982
scalar myHospitalNetwork.node[4].nic.mac1609_4 SentAcknowledgements 0
scalar myHospitalNetwork.node[4].nic.mac1609_4 RetriesExceeded 0
scalar myHospitalNetwork.node[4].nic.mac1609_4 SNIRLostPackets 133199
scalar myHospitalNetwork.node[4].nic.mac1609_4 RXTXLostPackets 13557
scalar myHospitalNetwork.node[4].nic.mac1609_4 TotalLostPackets 146756
scalar myHospitalNetwork.node[4].nic.mac1609_4 DroppedPacketsInMac 0
scalar myHospitalNetwork.node[4].nic.mac1609_4 TooLittleTime 3824
scalar myHospitalNetwork.node[4].nic.mac1609_4 TimesIntoBackoff 12618
scalar myHospitalNetwork.node[4].nic.mac1609_4 SlotsBackoff 8909
scalar myHospitalNetwork.node[4].nic.mac1609_4 NumInternalContention 0
scalar myHospitalNetwork.node[4].nic.mac1609_4 totalBusyTime 6.965123713055
scalar myHospitalNetwork.node[4].nic.mac1609_4 retriesExceeded:count 0
attr recordingmode count
attr source org_car2x_veins_modules_mac_sigRetriesExceeded
scalar myHospitalNetwork.node[4].nic.mac1609_4 sentAcks:count 0
attr recordingmode count
attr source org_car2x_veins_modules_mac_sigSentAck
scalar myHospitalNetwork.node[4].nic.mac1609_4 sentPackets:count 5982
attr recordingmode count
attr source org_car2x_veins_modules_mac_sigSentPacket
scalar myHospitalNetwork.node[4].nic.mac1609_4 collisions:count 0
attr recordingmode count
attr source org_car2x_veins_modules_mac_sigCollision
scalar myHospitalNetwork.node[4].nic.mac1609_4 channelBusy:timeavg 0.023279156794961
attr recordingmode timeavg
attr source org_car2x_veins_modules_mac_sigChannelBusy
par myHospitalNetwork.node[4].nic typename "\"org.car2x.veins.modules.nic.Nic80211p\""
par myHospitalNetwork.node[4].nic connectionManagerName "\"connectionManager\""
par myHospitalNetwork.node[4].veinsmobility typename "\"org.car2x.veins.modules.mobility.traci.TraCIMobility\""
par myHospitalNetwork.node[4].veinsmobility notAffectedByHostState true
par myHospitalNetwork.node[4].veinsmobility x 0
par myHospitalNetwork.node[4].veinsmobility y 0
par myHospitalNetwork.node[4].veinsmobility z 0
par myHospitalNetwork.node[4].veinsmobility xOrientation 1
par myHospitalNetwork.node[4].veinsmobility yOrientation 0
par myHospitalNetwork.node[4].veinsmobility zOrientation 0
par myHospitalNetwork.node[4].veinsmobility hostPositionOffset 0m
attr unit m
par myHospitalNetwork.node[4].veinsmobility setHostSpeed false
par myHospitalNetwork.node[4].veinsmobility accidentCount 0
par myHospitalNetwork.node[4].veinsmobility accidentStart 58.25s
attr unit s
par myHospitalNetwork.node[4].veinsmobility accidentDuration "uniform(30s, 60s)"
attr unit s
par myHospitalNetwork.node[4].veinsmobility accidentInterval "uniform(30s, 60s)"
attr unit s
scalar myHospitalNetwork.node[4].veinsmobility startTime 3.1
scalar myHospitalNetwork.node[4].veinsmobility totalTime 299.1
scalar myHospitalNetwork.node[4].veinsmobility stopTime 302.3
scalar myHospitalNetwork.node[4].veinsmobility minSpeed 0
scalar myHospitalNetwork.node[4].veinsmobility maxSpeed 7.79012
scalar myHospitalNetwork.node[4].veinsmobility totalDistance 1169.4894637611
scalar myHospitalNetwork.node[4].veinsmobility totalCO2Emission 444.55043994744
par myHospitalNetwork.node[4] typename "\"org.car2x.veins.nodes.Car\""
par myHospitalNetwork.node[4] applType "\"AGVControlApp\""
par myHospitalNetwork.node[4] nicType "\"Nic80211p\""
par myHospitalNetwork.node[4] veinsmobilityType "\"org.car2x.veins.modules.mobility.traci.TraCIMobility\""
par myHospitalNetwork.node[27].appl typename "\"lab001.veins_inet.AGVControlApp\""
par myHospitalNetwork.node[27].appl headerLength 80bit
attr unit bit
par myHospitalNetwork.node[27].appl sendBeacons false
par myHospitalNetwork.node[27].appl beaconLengthBits 256bit
attr unit bit
par myHospitalNetwork.node[27].appl beaconUserPriority 7
par myHospitalNetwork.node[27].appl beaconInterval 0.1s
attr unit s
par myHospitalNetwork.node[27].appl dataLengthBits 1024bit
attr unit bit
par myHospitalNetwork.node[27].appl dataOnSch true
par myHospitalNetwork.node[27].appl dataUserPriority 7
par myHospitalNetwork.node[27].appl avoidBeaconSynchronization true
par myHospitalNetwork.node[27].appl sendWSA false
par myHospitalNetwork.node[27].appl wsaLengthBits 250bit
attr unit bit
par myHospitalNetwork.node[27].appl wsaInterval 1s
attr unit s
par myHospitalNetwork.node[27].appl appName "\"My first Veins App!\""
scalar myHospitalNetwork.node[27].appl generatedWSMs 0
scalar myHospitalNetwork.node[27].appl receivedWSMs 0
scalar myHospitalNetwork.node[27].appl generatedBSMs 2442
scalar myHospitalNetwork.node[27].appl receivedBSMs 0
scalar myHospitalNetwork.node[27].appl generatedWSAs 0
scalar myHospitalNetwork.node[27].appl receivedWSAs 0
par myHospitalNetwork.node[27].nic.phy80211p typename "\"org.car2x.veins.modules.phy.PhyLayer80211p\""
par myHospitalNetwork.node[27].nic.phy80211p recordStats false
par myHospitalNetwork.node[27].nic.phy80211p usePropagationDelay true
par myHospitalNetwork.node[27].nic.phy80211p noiseFloor -98dBm
attr unit dBm
par myHospitalNetwork.node[27].nic.phy80211p useNoiseFloor true
par myHospitalNetwork.node[27].nic.phy80211p antenna "<Antenna type=\"SampledAntenna1D\" id=\"monopole\">...</Antenna> at /home/ukraine/veins_framework/Lab001/simulations/eh//antenna.xml:35"
par myHospitalNetwork.node[27].nic.phy80211p antennaOffsetX 0m
attr unit m
par myHospitalNetwork.node[27].nic.phy80211p antennaOffsetY 0m
attr unit m
par myHospitalNetwork.node[27].nic.phy80211p antennaOffsetZ 1.895m
attr unit m
par myHospitalNetwork.node[27].nic.phy80211p antennaOffsetYaw 0rad
attr unit rad
par myHospitalNetwork.node[27].nic.phy80211p analogueModels "<root>...</root> at /home/ukraine/veins_framework/Lab001/simulations/eh//config.xml:34"
par myHospitalNetwork.node[27].nic.phy80211p decider "<root>...</root> at /home/ukraine/veins_framework/Lab001/simulations/eh//config.xml:34"
par myHospitalNetwork.node[27].nic.phy80211p minPowerLevel -110dBm
attr unit dBm
par myHospitalNetwork.node[27].nic.phy80211p timeRXToTX 0s
attr unit s
par myHospitalNetwork.node[27].nic.phy80211p timeRXToSleep 0s
attr unit s
par myHospitalNetwork.node[27].nic.phy80211p timeTXToRX 0s
attr unit s
par myHospitalNetwork.node[27].nic.phy80211p timeTXToSleep 0s
attr unit s
par myHospitalNetwork.node[27].nic.phy80211p timeSleepToRX 0s
attr unit s
par myHospitalNetwork.node[27].nic.phy80211p timeSleepToTX 0s
attr unit s
par myHospitalNetwork.node[27].nic.phy80211p initialRadioState 0
par myHospitalNetwork.node[27].nic.phy80211p radioMinAtt 1
par myHospitalNetwork.node[27].nic.phy80211p radioMaxAtt 0
par myHospitalNetwork.node[27].nic.phy80211p nbRadioChannels 1
par myHospitalNetwork.node[27].nic.phy80211p initialRadioChannel 0
par myHospitalNetwork.node[27].nic.phy80211p ccaThreshold -65dBm
attr unit dBm
par myHospitalNetwork.node[27].nic.phy80211p collectCollisionStatistics false
par myHospitalNetwork.node[27].nic.phy80211p allowTxDuringRx false
scalar myHospitalNetwork.node[27].nic.phy80211p busyTime 0.085327141687254
par myHospitalNetwork.node[27].nic.mac1609_4 typename "\"org.car2x.veins.modules.mac.ieee80211p.Mac1609_4\""
par myHospitalNetwork.node[27].nic.mac1609_4 notAffectedByHostState false
par myHospitalNetwork.node[27].nic.mac1609_4 headerLength 0bit
attr unit bit
par myHospitalNetwork.node[27].nic.mac1609_4 address "\"auto\""
par myHospitalNetwork.node[27].nic.mac1609_4 useServiceChannel true
par myHospitalNetwork.node[27].nic.mac1609_4 serviceChannel 1
par myHospitalNetwork.node[27].nic.mac1609_4 bitrate 6000000bps
attr unit bps
par myHospitalNetwork.node[27].nic.mac1609_4 syncOffset 0.0003s
attr unit s
par myHospitalNetwork.node[27].nic.mac1609_4 txPower 20mW
attr unit mW
par myHospitalNetwork.node[27].nic.mac1609_4 queueSize 0
par myHospitalNetwork.node[27].nic.mac1609_4 dot11RTSThreshold 12000bit
attr unit bit
par myHospitalNetwork.node[27].nic.mac1609_4 dot11ShortRetryLimit 7
par myHospitalNetwork.node[27].nic.mac1609_4 dot11LongRetryLimit 4
par myHospitalNetwork.node[27].nic.mac1609_4 ackLength 112bit
attr unit bit
par myHospitalNetwork.node[27].nic.mac1609_4 useAcks false
par myHospitalNetwork.node[27].nic.mac1609_4 frameErrorRate 0
par myHospitalNetwork.node[27].nic.mac1609_4 ackErrorRate 0
scalar myHospitalNetwork.node[27].nic.mac1609_4 ReceivedUnicastPackets 0
scalar myHospitalNetwork.node[27].nic.mac1609_4 ReceivedBroadcasts 13133
scalar myHospitalNetwork.node[27].nic.mac1609_4 SentPackets 4882
scalar myHospitalNetwork.node[27].nic.mac1609_4 SentAcknowledgements 0
scalar myHospitalNetwork.node[27].nic.mac1609_4 RetriesExceeded 0
scalar myHospitalNetwork.node[27].nic.mac1609_4 SNIRLostPackets 108100
scalar myHospitalNetwork.node[27].nic.mac1609_4 RXTXLostPackets 21731
scalar myHospitalNetwork.node[27].nic.mac1609_4 TotalLostPackets 129831
scalar myHospitalNetwork.node[27].nic.mac1609_4 DroppedPacketsInMac 0
scalar myHospitalNetwork.node[27].nic.mac1609_4 TooLittleTime 4654
scalar myHospitalNetwork.node[27].nic.mac1609_4 TimesIntoBackoff 9764
scalar myHospitalNetwork.node[27].nic.mac1609_4 SlotsBackoff 7305
scalar myHospitalNetwork.node[27].nic.mac1609_4 NumInternalContention 0
scalar myHospitalNetwork.node[27].nic.mac1609_4 totalBusyTime 5.202307684031
scalar myHospitalNetwork.node[27].nic.mac1609_4 retriesExceeded:count 0
attr recordingmode count
attr source org_car2x_veins_modules_mac_sigRetriesExceeded
scalar myHospitalNetwork.node[27].nic.mac1609_4 sentAcks:count 0
attr recordingmode count
attr source org_car2x_veins_modules_mac_sigSentAck
scalar myHospitalNetwork.node[27].nic.mac1609_4 sentPackets:count 4882
attr recordingmode count
attr source org_car2x_veins_modules_mac_sigSentPacket
scalar myHospitalNetwork.node[27].nic.mac1609_4 collisions:count 0
attr recordingmode count
attr source org_car2x_veins_modules_mac_sigCollision
sc