version 3
run General-0-20221029-09:01:11-4565
attr configname General
attr datetime 20221029-09:01:11
attr datetimef 20221029-090111
attr experiment General
attr inifile omnetpp.ini
attr iterationvars ""
attr iterationvarsd ""
attr iterationvarsf ""
attr measurement ""
attr network myHospitalNetwork
attr processid 4565
attr repetition 0
attr replication #0
attr resultdir results
attr runnumber 0
attr seedset 0
config debug-on-errors true
config image-path ../../../../veins_framework/src/omnetpp-6.0/samples/inet4.4/images:../../../../veins_framework/src/veins-5.2/veins-veins-5.2/images
config cmdenv-express-mode true
config cmdenv-autoflush true
config cmdenv-status-frequency 0.1s
config **.cmdenv-log-level info
config ned-path .
config image-path ../../images
config network myHospitalNetwork
config debug-on-errors true
config print-undisposed false
config sim-time-limit 3600s
config **.scalar-recording true
config **.vector-recording true
config *.playgroundSizeX 2500m
config *.playgroundSizeY 2500m
config *.playgroundSizeZ 50m
config *.annotations.draw true
config *.manager.updateInterval 0.1s
config *.manager.host "\"localhost\""
config *.manager.port 9999
config *.manager.autoShutdown true
config *.manager.launchConfig "xmldoc(\"vd013.launchd.xml\")"
config *.manager.moduleType "\"agv=org.car2x.veins.nodes.Car pedestrian=lab001.veins_inet.IPerson\""
config *.manager.moduleName "\"agv=node pedestrian=personNode\""
config *.manager.moduleDisplayString "\"agv='i=veins/node/car;is=vs' pedestrian='i=veins/node/pedestrian;is=vs'\""
config *.rsu[0].mobility.x 300
config *.rsu[0].mobility.y 300
config *.rsu[0].mobility.z 3
config *.rsu[*].applType "\"HospitalControlApp\""
config *.rsu[*].appl.headerLength "80 bit"
config *.rsu[*].appl.sendBeacons false
config *.rsu[*].appl.dataOnSch false
config *.rsu[*].nic.phy80211p.antennaOffsetZ "0 m"
config *.connectionManager.sendDirect true
config *.connectionManager.maxInterfDist 2600m
config *.connectionManager.drawMaxIntfDist false
config *.**.nic.mac1609_4.useServiceChannel true
config *.**.nic.mac1609_4.txPower 20mW
config *.**.nic.mac1609_4.bitrate 6Mbps
config *.**.nic.phy80211p.minPowerLevel -110dBm
config *.**.nic.phy80211p.useNoiseFloor true
config *.**.nic.phy80211p.noiseFloor -98dBm
config *.**.nic.phy80211p.decider "xmldoc(\"config.xml\")"
config *.**.nic.phy80211p.analogueModels "xmldoc(\"config.xml\")"
config *.**.nic.phy80211p.usePropagationDelay true
config *.**.nic.phy80211p.antenna "xmldoc(\"antenna.xml\", \"/root/Antenna[@id='monopole']\")"
config *.node[*].nic.phy80211p.antennaOffsetY "0 m"
config *.node[*].nic.phy80211p.antennaOffsetZ "1.895 m"
config *.node[*].applType "\"AGVControlApp\""
config *.node[*].appl.headerLength "80 bit"
config *.node[*].appl.sendBeacons false
config *.node[*].appl.dataOnSch true
config *.node[*].appl.beaconInterval 0.1s
config *.node[*].veinsmobility.x 0
config *.node[*].veinsmobility.y 0
config *.node[*].veinsmobility.z 0
config *.node[*].veinsmobility.setHostSpeed false
config *.node[*0].veinsmobility.accidentCount 0

vector 0 myHospitalNetwork.node[0].veinsmobility posx ETV
vector 1 myHospitalNetwork.node[0].veinsmobility posy ETV
vector 2 myHospitalNetwork.node[0].veinsmobility speed ETV
vector 3 myHospitalNetwork.node[0].veinsmobility acceleration ETV
vector 4 myHospitalNetwork.node[0].veinsmobility co2emission ETV
4	340	9.3	8.2411490285043
4	402	9.4	7.9220667909956
4	464	9.5	1.2907343125956
4	526	9.6	1.2907343125956
4	584	9.7	1.2907343125956
4	646	9.8	1.2907343125956
4	704	9.9	1.2907343125956
4	766	10	1.2907343125956
4	828	10.1	1.2907343125956
4	890	10.2	1.2907343125956
4	952	10.3	1.2907343125956
4	1014	10.4	1.2907343125956
4	1076	10.5	1.2907343125956
4	1138	10.6	1.2907343125956
4	1196	10.7	1.2907343125956
4	1254	10.8	1.2907343125956
4	1316	10.9	1.2907343125956
4	1378	11	1.2907343125956
4	1436	11.1	1.2907343125956
4	1498	11.2	1.2907343125956
4	1560	11.3	1.2907343125956
4	1618	11.4	1.2907343125956
4	1680	11.5	1.2907343125956
4	1742	11.6	1.2907343125956
4	1804	11.7	1.2907343125956
4	1862	11.8	1.2907343125956
4	1920	11.9	1.2907343125956
4	1968	12	1.2907343125956
4	2016	12.1	1.2907343125956
4	2064	12.2	1.2907343125956
4	2112	12.3	1.2907343125956
4	2160	12.4	1.2907343125956
4	2208	12.5	1.2907343125956
4	2256	12.6	1.2907343125956
4	2304	12.7	1.2907343125956
4	2352	12.8	1.2907343125956
4	2400	12.9	1.2907343125956
4	2448	13	1.2907343125956
4	2506	13.1	1.2907343125956
4	2564	13.2	1.2907343125956
4	2626	13.3	1.2907343125956
4	2688	13.4	1.2907343125956
4	2750	13.5	1.2907343125956
4	2812	13.6	1.2907343125956
4	2874	13.7	1.2907343125956
4	2936	13.8	1.2907343125956
4	2994	13.9	1.2907343125956
4	3056	14	1.2907343125956
4	3118	14.1	1.2907343125956
4	3180	14.2	1.2907343125956
4	3242	14.3	1.2907343125956
4	3300	14.4	1.2907343125956
4	3362	14.5	1.2907343125956
4	3420	14.6	1.2907343125956
4	3482	14.7	1.2907343125956
4	3544	14.8	1.2907343125956
4	3602	14.9	1.2907343125956
4	3660	15	1.2907343125956
4	3722	15.1	1.2907343125956
4	3784	15.2	1.2907343125956
4	3842	15.3	1.2907343125956
4	3890	15.4	1.2907343125956
4	3938	15.5	1.2907343125956
4	3986	15.6	1.2907343125956
4	4034	15.7	1.2907343125956
4	4082	15.8	1.2907343125956
4	4130	15.9	1.2907343125956
4	4178	16	1.2907343125956
4	4226	16.1	1.2907343125956
4	4274	16.2	1.2907343125956
4	4322	16.3	1.2907343125956
4	4370	16.4	1.2907343125956
4	4432	16.5	1.2907343125956
4	4490	16.6	1.2907343125956
4	4552	16.7	1.2907343125956
4	4614	16.8	1.2907343125956
4	4672	16.9	1.2907343125956
4	4730	17	1.2907343125956
4	4792	17.1	1.2907343125956
4	4854	17.2	1.2907343125956
4	4916	17.3	1.2907343125956
4	4964	17.4	1.2907343125956
4	5012	17.5	1.2907343125956
4	5060	17.6	1.2907343125956
4	5108	17.7	1.2907343125956
4	5156	17.8	1.2907343125956
4	5204	17.9	1.2907343125956
4	5252	18	1.2907343125956
4	5300	18.1	1.2907343125956
4	5348	18.2	1.2907343125956
4	5396	18.3	1.2907343125956
4	5444	18.4	1.2907343125956
4	5492	18.5	1.2907343125956
4	5540	18.6	1.2907343125956
4	5588	18.7	1.2907343125956
4	5636	18.8	1.2907343125956
4	5684	18.9	1.2907343125956
4	5732	19	1.2907343125956
4	5780	19.1	1.2907343125956
4	5828	19.2	1.2907343125956
4	5876	19.3	1.2907343125956
4	5924	19.4	1.2907343125956
4	5972	19.5	1.2907343125956
4	6020	19.6	1.2907343125956
4	6068	19.7	1.2907343125956
4	6116	19.8	1.2907343125956
4	6178	19.9	1.2907343125956
4	6240	20	1.2907343125956
4	6302	20.1	1.2907343125956
4	6364	20.2	1.2907343125956
4	6426	20.3	1.2907343125956
4	6488	20.4	1.2907343125956
4	6546	20.5	1.2907343125956
4	6608	20.6	1.2907343125956
4	6670	20.7	1.2907343125956
4	6732	20.8	1.2907343125956
4	6794	20.9	1.2907343125956
4	6856	21	1.2907343125956
4	6918	21.1	1.2907343125956
4	6976	21.2	1.2907343125956
4	7024	21.3	1.2907343125956
4	7082	21.4	1.2907343125956
4	7144	21.5	1.2907343125956
4	7206	21.6	1.2907343125956
4	7268	21.7	1.2907343125956
4	7326	21.8	1.2907343125956
4	7384	21.9	1.2907343125956
4	7446	22	1.2907343125956
4	7508	22.1	1.2907343125956
4	7570	22.2	1.2907343125956
4	7632	22.3	1.2907343125956
4	7694	22.4	1.2907343125956
4	7756	22.5	1.2907343125956
4	7818	22.6	1.2907343125956
4	7880	22.7	1.2907343125956
4	7928	22.8	1.2907343125956
4	7976	22.9	1.2907343125956
4	8024	23	1.2907343125956
4	8072	23.1	1.2907343125956
4	8120	23.2	1.2907343125956
4	8168	23.3	1.2907343125956
4	8216	23.4	1.2907343125956
4	8264	23.5	1.2907343125956
4	8312	23.6	1.2907343125956
4	8360	23.7	1.2907343125956
4	8408	23.8	1.2907343125956
4	8456	23.9	1.2907343125956
4	8504	24	1.2907343125956
4	8552	24.1	1.2907343125956
4	8600	24.2	1.2907343125956
4	8648	24.3	1.2907343125956
4	8696	24.4	1.2907343125956
4	8744	24.5	1.2907343125956
4	8792	24.6	1.2907343125956
4	8840	24.7	1.2907343125956
4	8888	24.8	1.2907343125956
4	8936	24.9	1.2907343125956
4	8984	25	1.2907343125956
4	9032	25.1	1.2907343125956
4	9080	25.2	1.2907343125956
4	9128	25.3	1.2907343125956
4	9176	25.4	1.2907343125956
4	9224	25.5	1.2907343125956
4	9272	25.6	1.2907343125956
4	9320	25.7	1.2907343125956
4	9368	25.8	1.2907343125956
4	9416	25.9	1.2907343125956
4	9464	26	1.2907343125956
4	9512	26.1	1.2907343125956
4	9560	26.2	1.2907343125956
4	9608	26.3	1.2907343125956
4	9656	26.4	1.2907343125956
4	9704	26.5	1.2907343125956
4	9752	26.6	1.2907343125956
4	9814	26.7	1.2907343125956
4	9872	26.8	1.2907343125956
4	9934	26.9	1.2907343125956
4	9996	27	1.2907343125956
4	10054	27.1	1.2907343125956
4	10116	27.2	1.2907343125956
4	10178	27.3	1.2907343125956
4	10240	27.4	1.2907343125956
4	10302	27.5	1.2907343125956
4	10350	27.6	1.2907343125956
4	10398	27.7	1.2907343125956
4	10446	27.8	1.2907343125956
4	10494	27.9	1.2907343125956
4	10542	28	1.2907343125956
4	10590	28.1	1.2907343125956
4	10638	28.2	1.2907343125956
4	10686	28.3	1.2907343125956
4	10734	28.4	1.2907343125956
4	10782	28.5	1.2907343125956
4	10830	28.6	1.2907343125956
4	10892	28.7	1.2907343125956
4	10954	28.8	1.2907343125956
4	11016	28.9	1.2907343125956
4	11078	29	1.2907343125956
4	11140	29.1	1.2907343125956
4	11202	29.2	1.2907343125956
4	11260	29.3	1.2907343125956
4	11322	29.4	1.2907343125956
4	11384	29.5	1.2907343125956
4	11442	29.6	1.2907343125956
4	11504	29.7	1.2907343125956
4	11566	29.8	1.2907343125956
4	11628	29.9	1.2907343125956
4	11690	30	1.2907343125956
4	11752	30.1	1.2907343125956
4	11814	30.2	1.2907343125956
4	11872	30.3	1.2907343125956
4	11934	30.4	1.2907343125956
4	11996	30.5	1.2907343125956
4	12058	30.6	1.2907343125956
4	12120	30.7	1.2907343125956
4	12182	30.8	1.2907343125956
4	12244	30.9	1.2907343125956
4	12306	31	1.2907343125956
4	12354	31.1	1.2907343125956
4	12402	31.2	1.2907343125956
4	12450	31.3	1.2907343125956
4	12498	31.4	1.2907343125956
4	12546	31.5	1.2907343125956
4	12594	31.6	1.2907343125956
4	12642	31.7	1.2907343125956
4	12690	31.8	1.2907343125956
4	12738	31.9	1.2907343125956
4	12786	32	1.2907343125956
4	12834	32.1	1.2907343125956
4	12892	32.2	1.2907343125956
4	12954	32.3	1.2907343125956
4	13016	32.4	1.2907343125956
4	13078	32.5	1.2907343125956
4	13140	32.6	1.2907343125956
4	13202	32.7	1.2907343125956
4	13264	32.8	1.2907343125956
4	13326	32.9	1.2907343125956
4	13384	33	1.2907343125956
4	13446	33.1	1.2907343125956
4	13504	33.2	1.2907343125956
4	13566	33.3	1.2907343125956
4	13628	33.4	1.2907343125956
4	13690	33.5	1.2907343125956
4	13748	33.6	1.2907343125956
4	13806	33.7	1.2907343125956
4	13868	33.8	1.2907343125956
4	13930	33.9	1.2907343125956
4	13992	34	1.2907343125956
4	14050	34.1	1.2907343125956
4	14112	34.2	1.2907343125956
4	14174	34.3	1.2907343125956
4	14236	34.4	1.2907343125956
4	14284	34.5	1.2907343125956
4	14332	34.6	1.2907343125956
4	14380	34.7	1.2907343125956
4	14428	34.8	1.2907343125956
4	14476	34.9	1.2907343125956
4	14524	35	1.2907343125956
4	14572	35.1	1.2907343125956
4	14620	35.2	1.2907343125956
4	14668	35.3	1.2907343125956
4	14716	35.4	1.2907343125956
4	14764	35.5	1.2907343125956
4	14826	35.6	1.2907343125956
4	14888	35.7	1.2907343125956
4	14946	35.8	1.2907343125956
4	15008	35.9	1.2907343125956
4	15070	36	1.2907343125956
4	15132	36.1	1.2907343125956
4	15194	36.2	1.2907343125956
4	15252	36.3	1.2907343125956
4	15310	36.4	1.2907343125956
4	15358	36.5	1.2907343125956
4	15406	36.6	1.2907343125956
4	15454	36.7	1.2907343125956
4	15502	36.8	1.2907343125956
4	15550	36.9	1.2907343125956
4	15598	37	1.2907343125956
4	15646	37.1	1.2907343125956
4	15694	37.2	1.2907343125956
4	15742	37.3	1.2907343125956
4	15790	37.4	1.2907343125956
4	15838	37.5	1.2907343125956
4	15886	37.6	1.2907343125956
4	15934	37.7	1.2907343125956
4	15982	37.8	1.2907343125956
4	16030	37.9	1.2907343125956
4	16078	38	1.2907343125956
4	16126	38.1	1.2907343125956
4	16174	38.2	1.2907343125956
4	16222	38.3	1.2907343125956
4	16270	38.4	1.2907343125956
4	16318	38.5	1.2907343125956
4	16366	38.6	1.2907343125956
4	16414	38.7	1.2907343125956
4	16462	38.8	1.2907343125956
4	16510	38.9	1.2907343125956
4	16558	39	1.2907343125956
4	16606	39.1	1.2907343125956
4	16654	39.2	1.2907343125956
4	16702	39.3	1.2907343125956
4	16750	39.4	1.2907343125956
4	16798	39.5	1.2907343125956
4	16846	39.6	1.2907343125956
4	16894	39.7	1.2907343125956
4	16942	39.8	1.2907343125956
4	16990	39.9	1.2907343125956
4	17038	40	1.2907343125956
4	17086	40.1	1.2907343125956
4	17134	40.2	1.2907343125956
4	17182	40.3	1.2907343125956
4	17244	40.4	1.2907343125956
4	17306	40.5	1.2907343125956
4	17368	40.6	1.2907343125956
4	17430	40.7	1.2907343125956
4	17488	40.8	1.2907343125956
4	17550	40.9	1.2907343125956
4	17612	41	1.2907343125956
4	17674	41.1	1.2907343125956
4	17736	41.2	1.2907343125956
4	17784	41.3	1.2907343125956
4	17832	41.4	1.2907343125956
4	17880	41.5	1.2907343125956
4	17928	41.6	1.2907343125956
4	17976	41.7	1.2907343125956
4	18024	41.8	1.2907343125956
4	18072	41.9	1.2907343125956
4	18120	42	1.2907343125956
4	18168	42.1	1.2907343125956
4	18216	42.2	1.2907343125956
4	18264	42.3	1.2907343125956
4	18326	42.4	1.2907343125956
4	18384	42.5	1.2907343125956
4	18442	42.6	1.2907343125956
4	18504	42.7	1.2907343125956
4	18562	42.8	1.2907343125956
4	18624	42.9	1.2907343125956
4	18682	43	1.2907343125956
4	18740	43.1	1.2907343125956
4	18802	43.2	1.2907343125956
4	18850	43.3	1.2907343125956
4	18898	43.4	1.2907343125956
4	18946	43.5	1.2907343125956
4	18994	43.6	1.2907343125956
4	19042	43.7	1.2907343125956
4	19090	43.8	1.2907343125956
4	19138	43.9	1.2907343125956
4	19186	44	1.2907343125956
4	19234	44.1	1.2907343125956
4	19282	44.2	1.2907343125956
4	19330	44.3	1.2907343125956
4	19378	44.4	1.2907343125956
4	19426	44.5	1.2907343125956
4	19474	44.6	1.2907343125956
4	19522	44.7	1.2907343125956
4	19570	44.8	1.2907343125956
4	19618	44.9	1.2907343125956
4	19666	45	1.2907343125956
4	19714	45.1	1.2907343125956
4	19762	45.2	1.2907343125956
4	19810	45.3	1.2907343125956
4	19858	45.4	1.2907343125956
4	19906	45.5	1.2907343125956
4	19954	45.6	1.2907343125956
4	20002	45.7	1.2907343125956
4	20050	45.8	1.2907343125956
4	20098	45.9	1.2907343125956
4	20146	46	1.2907343125956
4	20194	46.1	1.2907343125956
4	20242	46.2	1.2907343125956
4	20290	46.3	1.2907343125956
4	20338	46.4	1.2907343125956
4	20386	46.5	1.2907343125956
4	20434	46.6	1.2907343125956
4	20482	46.7	1.2907343125956
4	20530	46.8	1.2907343125956
4	20578	46.9	1.2907343125956
4	20626	47	1.2907343125956
4	20674	47.1	1.2907343125956
4	20722	47.2	1.2907343125956
4	20780	47.3	1.2907343125956
4	20842	47.4	1.2907343125956
4	20900	47.5	1.2907343125956
4	20962	47.6	1.2907343125956
4	21024	47.7	1.2907343125956
4	21082	47.8	1.2907343125956
4	21144	47.9	1.2907343125956
4	21202	48	1.2907343125956
4	21264	48.1	1.2907343125956
4	21312	48.2	1.2907343125956
4	21360	48.3	1.2907343125956
4	21408	48.4	1.2907343125956
4	21456	48.5	1.2907343125956
4	21504	48.6	1.2907343125956
4	21552	48.7	1.2907343125956
4	21600	48.8	1.2907343125956
4	21648	48.9	1.2907343125956
4	21696	49	1.2907343125956
4	21744	49.1	1.2907343125956
4	21792	49.2	1.2907343125956
4	21854	49.3	1.2907343125956
4	21916	49.4	1.2907343125956
4	21974	49.5	1.2907343125956
4	22032	49.6	1.2907343125956
4	22094	49.7	1.2907343125956
4	22156	49.8	1.2907343125956
4	22218	49.9	1.2907343125956
4	22280	50	1.2907343125956
4	22338	50.1	1.2907343125956
4	22400	50.2	1.2907343125956
4	22462	50.3	1.2907343125956
4	22520	50.4	1.2907343125956
4	22582	50.5	1.2907343125956
4	22640	50.6	1.2907343125956
4	22702	50.7	1.2907343125956
4	22764	50.8	1.2907343125956
4	22826	50.9	1.2907343125956
4	22884	51	1.2907343125956
4	22946	51.1	1.2907343125956
4	23008	51.2	1.2907343125956
4	23070	51.3	1.2907343125956
4	23128	51.4	1.2907343125956
4	23190	51.5	1.2907343125956
4	23238	51.6	1.2907343125956
4	23286	51.7	1.2907343125956
4	23334	51.8	1.2907343125956
4	23382	51.9	1.2907343125956
4	23430	52	1.2907343125956
4	23478	52.1	1.2907343125956
4	23526	52.2	1.2907343125956
4	23574	52.3	1.2907343125956
4	23622	52.4	1.2907343125956
4	23670	52.5	1.2907343125956
4	23718	52.6	1.2907343125956
4	23780	52.7	1.2907343125956
4	23842	52.8	1.2907343125956
4	23904	52.9	1.2907343125956
4	23962	53	1.2907343125956
4	24024	53.1	1.2907343125956
4	24082	53.2	1.2907343125956
4	24140	53.3	1.2907343125956
4	24202	53.4	1.2907343125956
4	24260	53.5	1.2907343125956
4	24322	53.6	1.2907343125956
4	24380	53.7	1.2907343125956
4	24442	53.8	1.2907343125956
4	24504	53.9	1.2907343125956
4	24566	54	1.2907343125956
4	24628	54.1	1.2907343125956
4	24690	54.2	1.2907343125956
4	24752	54.3	1.2907343125956
4	24810	54.4	1.2907343125956
4	24872	54.5	1.2907343125956
4	24934	54.6	1.2907343125956
4	24996	54.7	1.2907343125956
4	25058	54.8	1.2907343125956
4	25116	54.9	1.2907343125956
4	25164	55	1.2907343125956
4	25212	55.1	1.2907343125956
4	25260	55.2	1.2907343125956
4	25308	55.3	1.2907343125956
4	25356	55.4	1.2907343125956
4	25404	55.5	1.2907343125956
4	25452	55.6	1.2907343125956
4	25500	55.7	1.2907343125956
4	25548	55.8	1.2907343125956
4	25596	55.9	1.2907343125956
4	25644	56	1.2907343125956
4	25702	56.1	1.2907343125956
4	25764	56.2	1.2907343125956
4	25826	56.3	1.2907343125956
4	25888	56.4	1.2907343125956
4	25946	56.5	1.2907343125956
4	26008	56.6	1.2907343125956
4	26066	56.7	1.2907343125956
4	26128	56.8	1.2907343125956
4	26190	56.9	1.2907343125956
4	26248	57	1.2907343125956
4	26306	57.1	1.2907343125956
4	26368	57.2	1.2907343125956
4	26430	57.3	1.2907343125956
4	26492	57.4	1.2907343125956
4	26554	57.5	1.2907343125956
4	26612	57.6	1.2907343125956
4	26674	57.7	1.2907343125956
4	26736	57.8	1.2907343125956
4	26794	57.9	1.2907343125956
4	26856	58	1.2907343125956
4	26914	58.1	1.2907343125956
4	26976	58.2	1.2907343125956
4	27034	58.3	1.2907343125956
4	27082	58.4	1.2907343125956
4	27130	58.5	1.2907343125956
4	27178	58.6	1.2907343125956
4	27226	58.7	1.2907343125956
4	27274	58.8	1.2907343125956
4	27322	58.9	1.2907343125956
4	27370	59	1.2907343125956
4	27418	59.1	1.2907343125956
4	27466	59.2	1.2907343125956
4	27514	59.3	1.2907343125956
4	27562	59.4	1.2907343125956
4	27624	59.5	1.2907343125956
4	27682	59.6	1.2907343125956
4	27740	59.7	1.2907343125956
4	27802	59.8	1.2907343125956
4	27864	59.9	1.2907343125956
4	27926	60	1.2907343125956
4	27988	60.1	1.2907343125956
4	28050	60.2	1.2907343125956
4	28108	60.3	1.2907343125956
4	28170	60.4	1.2907343125956
4	28228	60.5	1.2907343125956
4	28286	60.6	1.2907343125956
4	28344	60.7	1.2907343125956
4	28406	60.8	7.4724091210218
4	28468	60.9	14.037018338973
4	28516	61	16.50445446532
4	28564	61.1	5.061537924833
4	28612	61.2	1.4479965799839
4	28660	61.3	1.4479965799839
4	28708	61.4	1.4479965799839
4	28756	61.5	1.4479965799839
4	28804	61.6	1.4479965799839
4	28852	61.7	1.4479965799839
4	28900	61.8	1.4479965799839
4	28948	61.9	1.4479965799839
4	28996	62	1.4479965799839
4	29044	62.1	1.4479965799839
4	29092	62.2	1.4479965799839
4	29140	62.3	0.973
4	29188	62.4	0.973
4	29236	62.5	0.973
4	29284	62.6	0.973
4	29332	62.7	1.2907343125956
4	29394	62.8	1.2907343125956
4	29456	62.9	1.2907343125956
4	29518	63	1.2907343125956
4	29580	63.1	1.2907343125956
4	29642	63.2	1.2907343125956
4	29700	63.3	1.2907343125956
4	29762	63.4	1.2907343125956
4	29824	63.5	1.2907343125956
4	29886	63.6	1.2907343125956
4	29948	63.7	1.2907343125956
4	30010	63.8	1.2907343125956
4	30072	63.9	1.2907343125956
4	30134	64	1.2907343125956
4	30192	64.1	1.2907343125956
4	30254	64.2	1.2907343125956
4	30302	64.3	1.2907343125956
4	30350	64.4	1.2907343125956
4	30398	64.5	1.2907343125956
4	30446	64.6	1.2907343125956
4	30494	64.7	1.2907343125956
4	30542	64.8	1.2907343125956
4	30590	64.9	1.2907343125956
4	30638	65	1.2907343125956
4	30686	65.1	1.2907343125956
4	30734	65.2	1.2907343125956
4	30796	65.3	1.2907343125956
4	30858	65.4	1.2907343125956
4	30920	65.5	1.2907343125956
4	30982	65.6	1.2907343125956
4	31044	65.7	1.2907343125956
4	31106	65.8	1.2907343125956
4	31168	65.9	1.2907343125956
4	31230	66	1.2907343125956
4	31292	66.1	1.2907343125956
4	31354	66.2	1.2907343125956
4	31412	66.3	1.2907343125956
4	31474	66.4	1.2907343125956
4	31536	66.5	1.2907343125956
4	31598	66.6	1.2907343125956
4	31660	66.7	1.2907343125956
4	31722	66.8	1.2907343125956
4	31784	66.9	1.2907343125956
4	31842	67	1.2907343125956
4	31904	67.1	1.2907343125956
4	31966	67.2	1.2907343125956
4	32028	67.3	1.2907343125956
4	32090	67.4	1.2907343125956
4	32148	67.5	1.2907343125956
4	32210	67.6	1.2907343125956
4	32258	67.7	1.2907343125956
4	32306	67.8	1.2907343125956
4	32354	67.9	1.2907343125956
4	32402	68	1.2907343125956
4	32450	68.1	1.2907343125956
4	32498	68.2	1.2907343125956
4	32546	68.3	1.2907343125956
4	32594	68.4	1.2907343125956
4	32642	68.5	1.2907343125956
4	32690	68.6	1.2907343125956
4	32738	68.7	1.2907343125956
4	32800	68.8	1.2907343125956
4	32862	68.9	1.2907343125956
4	32924	69	1.2907343125956
4	32986	69.1	1.2907343125956
4	33044	69.2	1.2907343125956
4	33106	69.3	1.2907343125956
4	33168	69.4	1.2907343125956
4	33230	69.5	1.2907343125956
4	33292	69.6	1.2907343125956
4	33350	69.7	1.2907343125956
4	33412	69.8	1.2907343125956
4	33470	69.9	1.2907343125956
4	33532	70	1.2907343125956
4	33594	70.1	1.2907343125956
4	33656	70.2	1.2907343125956
4	33714	70.3	1.2907343125956
4	33776	70.4	1.2907343125956
4	33838	70.5	1.2907343125956
4	33900	70.6	1.2907343125956
4	33962	70.7	1.2907343125956
4	34024	70.8	1.2907343125956
4	34082	70.9	1.2907343125956
4	34144	71	1.2907343125956
4	34192	71.1	1.2907343125956
4	34240	71.2	1.2907343125956
4	34288	71.3	1.2907343125956
4	34336	71.4	1.2907343125956
4	34384	71.5	1.2907343125956
4	34432	71.6	1.2907343125956
4	34480	71.7	1.2907343125956
4	34528	71.8	1.2907343125956
4	34576	71.9	1.2907343125956
4	34624	72	1.2907343125956
4	34672	72.1	1.2907343125956
4	34734	72.2	1.2907343125956
4	34796	72.3	1.2907343125956
4	34858	72.4	1.2907343125956
4	34920	72.5	1.2907343125956
4	34982	72.6	1.2907343125956
4	35044	72.7	1.2907343125956
4	35106	72.8	1.2907343125956
4	35168	72.9	1.2907343125956
4	35230	73	1.2907343125956
4	35292	73.1	1.2907343125956
4	35350	73.2	1.2907343125956
4	35412	73.3	1.2907343125956
4	35474	73.4	1.2907343125956
4	35536	73.5	1.2907343125956
4	35594	73.6	1.2907343125956
4	35656	73.7	1.2907343125956
4	35718	73.8	1.2907343125956
4	35780	73.9	1.2907343125956
4	35842	74	1.2907343125956
4	35904	74.1	1.2907343125956
4	35962	74.2	1.2907343125956
4	36024	74.3	1.2907343125956
4	36082	74.4	1.2907343125956
4	36130	74.5	1.2907343125956
4	36178	74.6	1.2907343125956
4	36226	74.7	1.2907343125956
4	36274	74.8	1.2907343125956
4	36322	74.9	1.2907343125956
4	36370	75	1.2907343125956
4	36418	75.1	1.2907343125956
4	36466	75.2	1.2907343125956
4	36514	75.3	1.2907343125956
4	36562	75.4	1.2907343125956
4	36610	75.5	1.2907343125956
4	36672	75.6	1.2907343125956
4	36734	75.7	1.2907343125956
4	36796	75.8	1.2907343125956
4	36858	75.9	1.2907343125956
4	36920	76	1.2907343125956
4	36982	76.1	1.2907343125956
4	37040	76.2	1.2907343125956
4	37102	76.3	1.2907343125956
4	37160	76.4	1.2907343125956
4	37218	76.5	1.2907343125956
4	37280	76.6	1.2907343125956
4	37342	76.7	1.2907343125956
4	37404	76.8	1.2907343125956
4	37466	76.9	1.2907343125956
4	37528	77	1.2907343125956
4	37590	77.1	1.2907343125956
4	37652	77.2	1.2907343125956
4	37714	77.3	1.2907343125956
4	37776	77.4	1.2907343125956
4	37838	77.5	1.2907343125956
4	37896	77.6	1.2907343125956
4	37958	77.7	1.2907343125956
4	38020	77.8	1.2907343125956
4	38068	77.9	1.2907343125956
4	38116	78	1.2907343125956
4	38164	78.1	1.2907343125956
4	38212	78.2	1.2907343125956
4	38260	78.3	1.2907343125956
4	38308	78.4	1.2907343125956
4	38356	78.5	1.2907343125956
4	38404	78.6	1.2907343125956
4	38452	78.7	1.2907343125956
4	38500	78.8	1.2907343125956
4	38548	78.9	1.2907343125956
4	38610	79	1.2907343125956
4	38672	79.1	1.2907343125956
4	38734	79.2	1.2907343125956
4	38796	79.3	1.2907343125956
4	38858	79.4	1.2907343125956
4	38920	79.5	1.2907343125956
4	38982	79.6	1.2907343125956
4	39044	79.7	1.2907343125956
4	39102	79.8	1.2907343125956
4	39164	79.9	1.2907343125956
4	39226	80	1.2907343125956
4	39288	80.1	1.2907343125956
4	39350	80.2	1.2907343125956
4	39408	80.3	1.2907343125956
4	39470	80.4	1.2907343125956
4	39532	80.5	1.2907343125956
4	39594	80.6	1.2907343125956
4	39656	80.7	1.2907343125956
4	39718	80.8	1.2907343125956
4	39780	80.9	1.2907343125956
4	39842	81	1.2907343125956
4	39904	81.1	1.2907343125956
4	39966	81.2	1.2907343125956
4	40028	81.3	1.2907343125956
4	40076	81.4	1.2907343125956
4	40124	81.5	1.2907343125956
4	40172	81.6	1.2907343125956
4	40220	81.7	1.2907343125956
4	40268	81.8	1.2907343125956
4	40316	81.9	1.2907343125956
4	40364	82	1.2907343125956
4	40412	82.1	1.2907343125956
4	40460	82.2	1.2907343125956
4	40508	82.3	1.2907343125956
4	40556	82.4	1.2907343125956
4	40618	82.5	1.2907343125956
4	40680	82.6	1.2907343125956
4	40742	82.7	1.2907343125956
4	40804	82.8	1.2907343125956
4	40866	82.9	1.2907343125956
4	40924	83	1.2907343125956
4	40982	83.1	1.2907343125956
4	41044	83.2	1.2907343125956
4	41106	83.3	1.2907343125956
4	41168	83.4	1.2907343125956
4	41230	83.5	1.2907343125956
4	41292	83.6	1.2907343125956
4	41354	83.7	1.2907343125956
4	41416	83.8	1.2907343125956
4	41478	83.9	1.2907343125956
4	41536	84	1.2907343125956
4	41598	84.1	1.2907343125956
4	41660	84.2	1.2907343125956
4	41722	84.3	1.2907343125956
4	41784	84.4	1.2907343125956
4	41842	84.5	1.2907343125956
4	41904	84.6	1.2907343125956
4	41966	84.7	1.2907343125956
4	42014	84.8	1.2907343125956
4	42062	84.9	1.2907343125956
4	42110	85	1.2907343125956
4	42158	85.1	1.2907343125956
4	42206	85.2	1.2907343125956
4	42254	85.3	1.2907343125956
4	42302	85.4	1.2907343125956
4	42350	85.5	1.2907343125956
4	42398	85.6	1.2907343125956
4	42446	85.7	1.2907343125956
4	42494	85.8	1.2907343125956
4	42556	85.9	1.2907343125956
4	42618	86	1.2907343125956
4	42680	86.1	1.2907343125956
4	42742	86.2	1.2907343125956
4	42804	86.3	1.2907343125956
4	42862	86.4	1.2907343125956
4	42924	86.5	1.2907343125956
4	42986	86.6	1.2907343125956
4	43044	86.7	1.2907343125956
4	43106	86.8	1.2907343125956
4	43164	86.9	1.2907343125956
4	43226	87	1.2907343125956
4	43288	87.1	1.2907343125956
4	43350	87.2	1.2907343125956
4	43412	87.3	1.2907343125956
4	43470	87.4	1.2907343125956
4	43532	87.5	1.2907343125956
4	43594	87.6	1.2907343125956
4	43652	87.7	1.2907343125956
4	43710	87.8	1.2907343125956
4	43772	87.9	1.2907343125956
4	43834	88	1.2907343125956
4	43896	88.1	1.2907343125956
4	43944	88.2	1.2907343125956
4	43992	88.3	1.2907343125956
4	44040	88.4	1.2907343125956
4	44088	88.5	1.2907343125956
4	44136	88.6	1.2907343125956
4	44184	88.7	1.2907343125956
4	44232	88.8	1.2907343125956
4	44280	88.9	1.2907343125956
4	44328	89	1.2907343125956
4	44376	89.1	1.2907343125956
4	44424	89.2	1.2907343125956
4	44486	89.3	1.2907343125956
4	44544	89.4	1.2907343125956
4	44606	89.5	1.2907343125956
4	44668	89.6	1.2907343125956
4	44726	89.7	1.2907343125956
4	44788	89.8	1.2907343125956
4	44846	89.9	1.2907343125956
4	44908	90	1.2907343125956
4	44970	90.1	1.2907343125956
4	45032	90.2	1.2907343125956
4	45094	90.3	1.2907343125956
4	45152	90.4	1.2907343125956
4	45214	90.5	1.2907343125956
4	45276	90.6	1.2907343125956
4	45338	90.7	1.2907343125956
4	45400	90.8	1.2907343125956
4	45462	90.9	1.2907343125956
4	45524	91	1.2907343125956
4	45586	91.1	1.2907343125956
4	45648	91.2	1.2907343125956
4	45710	91.3	1.2907343125956
4	45768	91.4	1.2907343125956
4	45830	91.5	1.2907343125956
4	45878	91.6	1.2907343125956
4	45926	91.7	1.2907343125956
4	45974	91.8	1.2907343125956
4	46022	91.9	1.2907343125956
4	46070	92	1.2907343125956
4	46118	92.1	1.2907343125956
4	46166	92.2	1.2907343125956
4	46214	92.3	1.2907343125956
4	46262	92.4	1.2907343125956
4	46310	92.5	1.2907343125956
4	46358	92.6	1.2907343125956
4	46420	92.7	1.2907343125956
4	46482	92.8	1.2907343125956
4	46540	92.9	1.2907343125956
4	46602	93	1.2907343125956
4	46664	93.1	1.2907343125956
4	46726	93.2	1.2907343125956
4	46788	93.3	1.2907343125956
4	46850	93.4	1.2907343125956
4	46912	93.5	1.2907343125956
4	46974	93.6	1.2907343125956
4	47036	93.7	1.2907343125956
4	47094	93.8	1.2907343125956
4	47152	93.9	1.2907343125956
4	47214	94	1.2907343125956
4	47272	94.1	1.2907343125956
4	47334	94.2	1.2907343125956
4	47392	94.3	1.2907343125956
4	47454	94.4	1.2907343125956
4	47516	94.5	1.2907343125956
4	47574	94.6	1.2907343125956
4	47636	94.7	1.2907343125956
4	47698	94.8	1.2907343125956
4	47760	94.9	1.2907343125956
4	47808	95	1.2907343125956
4	47856	95.1	1.2907343125956
4	47904	95.2	1.2907343125956
4	47952	95.3	1.2907343125956
4	48000	95.4	1.2907343125956
4	48048	95.5	1.2907343125956
4	48096	95.6	1.2907343125956
4	48144	95.7	1.2907343125956
4	48192	95.8	1.2907343125956
4	48240	95.9	1.2907343125956
4	48288	96	1.2907343125956
4	48350	96.1	1.2907343125956
4	48412	96.2	1.2907343125956
4	48474	96.3	1.2907343125956
4	48536	96.4	1.2907343125956
4	48594	96.5	1.2907343125956
4	48652	96.6	1.2907343125956
4	48710	96.7	1.2907343125956
4	48772	96.8	1.2907343125956
4	48830	96.9	1.2907343125956
4	48892	97	1.2907343125956
4	48954	97.1	1.2907343125956
4	49012	97.2	1.2907343125956
4	49070	97.3	1.2907343125956
4	49132	97.4	1.2907343125956
4	49194	97.5	1.2907343125956
4	49256	97.6	1.2907343125956
4	49318	97.7	1.2907343125956
4	49380	97.8	1.2907343125956
4	49442	97.9	1.2907343125956
4	49500	98	1.2907343125956
4	49562	98.1	1.2907343125956
4	49624	98.2	1.2907343125956
4	49682	98.3	1.2907343125956
4	49744	98.4	1.2907343125956
4	49792	98.5	1.2907343125956
4	49840	98.6	1.2907343125956
4	49888	98.7	1.2907343125956
4	49936	98.8	1.2907343125956
4	49984	98.9	1.2907343125956
4	50032	99	1.2907343125956
4	50080	99.1	1.2907343125956
4	50128	99.2	1.2907343125956
4	50176	99.3	1.2907343125956
4	50224	99.4	1.2907343125956
4	50272	99.5	1.2907343125956
4	50334	99.6	1.2907343125956
4	50396	99.7	1.2907343125956
4	50458	99.8	1.2907343125956
4	50516	99.9	1.2907343125956
4	50578	100	1.2907343125956
4	50640	100.1	1.2907343125956
4	50702	100.2	1.2907343125956
4	50764	100.3	1.2907343125956
4	50826	100.4	1.2907343125956
4	50888	100.5	1.2907343125956
4	50946	100.6	1.2907343125956
4	51008	100.7	1.2907343125956
4	51070	100.8	1.2907343125956
4	51132	100.9	1.2907343125956
4	51194	101	1.2907343125956
4	51252	101.1	1.2907343125956
4	51310	101.2	1.2907343125956
4	51372	101.3	1.2907343125956
4	51434	101.4	1.2907343125956
4	51496	101.5	1.2907343125956
4	51558	101.6	1.2907343125956
4	51620	101.7	1.2907343125956
4	51682	101.8	1.2907343125956
4	51730	101.9	1.2907343125956
4	51778	102	1.2907343125956
4	51826	102.1	1.2907343125956
4	51874	102.2	1.2907343125956
4	51922	102.3	1.2907343125956
4	51970	102.4	1.2907343125956
4	52018	102.5	1.2907343125956
4	52066	102.6	1.2907343125956
4	52114	102.7	1.2907343125956
4	52162	102.8	1.2907343125956
4	52210	102.9	1.2907343125956
4	52272	103	1.2907343125956
4	52334	103.1	1.2907343125956
4	52396	103.2	1.2907343125956
4	52454	103.3	1.2907343125956
4	52516	103.4	1.2907343125956
4	52574	103.5	1.2907343125956
4	52632	103.6	1.2907343125956
4	52690	103.7	1.2907343125956
4	52752	103.8	1.2907343125956
4	52814	103.9	1.2907343125956
4	52876	104	1.2907343125956
4	52938	104.1	1.2907343125956
4	53000	104.2	1.2907343125956
4	53062	104.3	1.2907343125956
4	53124	104.4	1.2907343125956
4	53186	104.5	1.2907343125956
4	53248	104.6	1.2907343125956
4	53310	104.7	1.2907343125956
4	53372	104.8	1.2907343125956
4	53434	104.9	1.2907343125956
4	53496	105	1.2907343125956
4	53558	105.1	1.2907343125956
4	53616	105.2	1.2907343125956
4	53664	105.3	1.2907343125956
4	53712	105.4	1.2907343125956
4	53760	105.5	1.2907343125956
4	53808	105.6	1.2907343125956
4	53856	105.7	1.2907343125956
4	53904	105.8	1.2907343125956
4	53952	105.9	1.2907343125956
4	54000	106	1.2907343125956
4	54048	106.1	1.2907343125956
4	54096	106.2	1.2907343125956
4	54144	106.3	1.2907343125956
4	54206	106.4	1.2907343125956
4	54268	106.5	1.2907343125956
4	54326	106.6	1.2907343125956
4	54388	106.7	1.2907343125956
4	54450	106.8	1.2907343125956
4	54508	106.9	1.2907343125956
4	54570	107	1.2907343125956
4	54628	107.1	1.2907343125956
4	54686	107.2	1.2907343125956
4	54734	107.3	1.2907343125956
4	54782	107.4	1.2907343125956
4	54830	107.5	1.2907343125956
4	54878	107.6	1.2907343125956
4	54926	107.7	1.2907343125956
4	54974	107.8	1.2907343125956
4	55022	107.9	1.2907343125956
4	55070	108	1.2907343125956
4	55118	108.1	1.2907343125956
4	55166	108.2	1.2907343125956
4	55214	108.3	1.2907343125956
4	55262	108.4	1.2907343125956
4	55310	108.5	1.2907343125956
4	55358	108.6	1.2907343125956
4	55406	108.7	1.2907343125956
4	55454	108.8	1.2907343125956
4	55502	108.9	1.2907343125956
4	55550	109	1.2907343125956
4	55598	109.1	1.2907343125956
4	55646	109.2	1.2907343125956
4	55694	109.3	1.2907343125956
4	55742	109.4	1.2907343125956
4	55790	109.5	1.2907343125956
4	55838	109.6	1.2907343125956
4	55886	109.7	1.2907343125956
4	55934	109.8	1.2907343125956
4	55982	109.9	1.2907343125956
4	56030	110	1.2907343125956
4	56078	110.1	1.2907343125956
4	56126	110.2	1.2907343125956
4	56174	110.3	1.2907343125956
4	56222	110.4	1.2907343125956
4	56270	110.5	1.2907343125956
4	56318	110.6	1.2907343125956
4	56366	110.7	1.2907343125956
4	56414	110.8	1.2907343125956
4	56462	110.9	1.2907343125956
4	56510	111	1.2907343125956
4	56558	111.1	1.2907343125956
4	56606	111.2	1.2907343125956
4	56668	111.3	1.2907343125956
4	56730	111.4	1.2907343125956
4	56792	111.5	1.2907343125956
4	56854	111.6	1.2907343125956
4	56916	111.7	1.2907343125956
4	56974	111.8	1.2907343125956
4	57036	111.9	1.2907343125956
4	57098	112	1.2907343125956
4	57160	112.1	1.2907343125956
4	57208	112.2	1.2907343125956
4	57256	112.3	1.2907343125956
4	57304	112.4	1.2907343125956
4	57352	112.5	1.2907343125956
4	57400	112.6	1.2907343125956
4	57448	112.7	1.2907343125956
4	57496	112.8	1.2907343125956
4	57544	112.9	1.2907343125956
4	57592	113	1.2907343125956
4	57640	113.1	1.2907343125956
4	57688	113.2	1.2907343125956
4	57746	113.3	1.2907343125956
4	57808	113.4	1.2907343125956
4	57870	113.5	1.2907343125956
4	57932	113.6	1.2907343125956
4	57994	113.7	1.2907343125956
4	58056	113.8	1.2907343125956
4	58118	113.9	1.2907343125956
4	58180	114	1.2907343125956
4	58238	114.1	1.2907343125956
4	58286	114.2	1.2907343125956
4	58334	114.3	1.2907343125956
4	58382	114.4	1.2907343125956
4	58430	114.5	1.2907343125956
4	58478	114.6	1.2907343125956
4	58526	114.7	1.2907343125956
4	58574	114.8	1.2907343125956
4	58622	114.9	1.2907343125956
4	58670	115	1.2907343125956
4	58718	115.1	1.2907343125956
4	58766	115.2	1.2907343125956
4	58814	115.3	1.2907343125956
4	58862	115.4	1.2907343125956
4	58910	115.5	1.2907343125956
4	58958	115.6	0.973
4	59006	115.7	0.973
4	59054	115.8	0.973
4	59102	115.9	0.973
4	59150	116	0.973
4	59198	116.1	0.973
4	59246	116.2	0.973
4	59294	116.3	0.973
4	59342	116.4	0.973
4	59390	116.5	0.973
4	59438	116.6	0.973
4	59486	116.7	0.973
4	59534	116.8	0.973
4	59582	116.9	0.973
4	59630	117	0.973
4	59678	117.1	0.973
4	59726	117.2	0.973
4	59774	117.3	0.973
4	59822	117.4	2.6910392979866
4	59870	117.5	5.5353707536282
4	59918	117.6	7.9950999011738
4	59966	117.7	8.8024879909956
4	60014	117.8	1.2907343125956
4	60062	117.9	1.2907343125956
4	60110	118	1.2907343125956
4	60158	118.1	1.2907343125956
4	60206	118.2	1.2907343125956
4	60254	118.3	1.2907343125956
4	60302	118.4	1.2907343125956
4	60350	118.5	1.2907343125956
4	60398	118.6	1.2907343125956
4	60446	118.7	1.2907343125956
4	60494	118.8	1.2907343125956
4	60542	118.9	1.2907343125956
4	60590	119	1.2907343125956
4	60638	119.1	1.2907343125956
4	60686	119.2	1.2907343125956
4	60734	119.3	1.2907343125956
4	60782	119.4	0.973
4	60830	119.5	0.973
4	60878	119.6	0.973
4	60926	119.7	0.973
4	60974	119.8	0.973
4	61022	119.9	0.973
4	61070	120	0.973
4	61118	120.1	0.973
4	61166	120.2	0.973
4	61214	120.3	0.973
4	61262	120.4	0.973
4	61310	120.5	0.973
4	61358	120.6	0.973
4	61406	120.7	0.973
4	61454	120.8	0.973
4	61502	120.9	0.973
4	61550	121	0.973
4	61598	121.1	0.973
4	61646	121.2	0.973
4	61694	121.3	0.973
4	61742	121.4	0.973
4	61790	121.5	0.973
4	61838	121.6	0.973
4	61886	121.7	0.973
4	61934	121.8	0.973
4	61982	121.9	0.973
4	62030	122	0.973
4	62078	122.1	0.973
4	62126	122.2	0.973
4	62174	122.3	0.973
4	62222	122.4	0.973
4	62270	122.5	0.973
4	62318	122.6	0.973
4	62366	122.7	0.973
4	62414	122.8	0.973
4	62462	122.9	0.973
4	62510	123	1.216048739031
4	62558	123.1	4.0600476307046
4	62606	123.2	6.5191116503142
4	62654	123.3	8.9793950711398
4	62712	123.4	5.2808031909956
4	62774	123.5	1.2907343125956
4	62836	123.6	1.2907343125956
4	62898	123.7	1.2907343125956
4	62956	123.8	1.2907343125956
4	63018	123.9	1.2907343125956
4	63080	124	1.2907343125956
4	63142	124.1	1.2907343125956
4	63204	124.2	1.2907343125956
4	63266	124.3	1.2907343125956
4	63314	124.4	1.2907343125956
4	63362	124.5	1.2907343125956
4	63410	124.6	1.2907343125956
4	63458	124.7	1.2907343125956
4	63506	124.8	1.2907343125956
4	63554	124.9	1.2907343125956
4	63602	125	1.2907343125956
4	63650	125.1	1.2907343125956
4	63698	125.2	1.2907343125956
4	63746	125.3	1.2907343125956
4	63794	125.4	1.2907343125956
4	63856	125.5	1.2907343125956
4	63918	125.6	1.2907343125956
4	63976	125.7	1.2907343125956
4	64038	125.8	1.2907343125956
4	64100	125.9	1.2907343125956
4	64162	126	1.2907343125956
4	64224	126.1	1.2907343125956
4	64282	126.2	1.2907343125956
4	64344	126.3	1.2907343125956
4	64406	126.4	1.2907343125956
4	64468	126.5	1.2907343125956
4	64530	126.6	1.2907343125956
4	64592	126.7	1.2907343125956
4	64654	126.8	1.2907343125956
4	64716	126.9	1.2907343125956
4	64778	127	1.2907343125956
4	64840	127.1	1.2907343125956
4	64902	127.2	1.2907343125956
4	64964	127.3	1.2907343125956
4	65026	127.4	1.2907343125956
4	65088	127.5	1.2907343125956
4	65150	127.6	1.2907343125956
4	65212	127.7	1.2907343125956
4	65260	127.8	1.2907343125956
4	65308	127.9	1.2907343125956
4	65356	128	1.2907343125956
4	65404	128.1	1.2907343125956
4	65452	128.2	1.2907343125956
4	65500	128.3	1.2907343125956
4	65548	128.4	1.2907343125956
4	65596	128.5	1.2907343125956
4	65644	128.6	1.2907343125956
4	65692	128.7	1.2907343125956
4	65740	128.8	1.2907343125956
4	65802	128.9	1.2907343125956
4	65860	129	1.2907343125956
4	65922	129.1	1.2907343125956
4	65980	129.2	1.2907343125956
4	66042	129.3	1.2907343125956
4	66104	129.4	1.2907343125956
4	66166	129.5	1.2907343125956
4	66228	129.6	1.2907343125956
4	66290	129.7	1.2907343125956
4	66352	129.8	1.2907343125956
4	66410	129.9	1.2907343125956
4	66468	130	1.2907343125956
4	66526	130.1	1.2907343125956
4	66588	130.2	1.2907343125956
4	66646	130.3	1.2907343125956
4	66704	130.4	1.2907343125956
4	66766	130.5	1.2907343125956
4	66824	130.6	1.2907343125956
4	66886	130.7	1.2907343125956
4	66948	130.8	1.2907343125956
4	67010	130.9	1.2907343125956
4	67068	131	1.2907343125956
4	67130	131.1	1.2907343125956
4	67178	131.2	1.2907343125956
4	67226	131.3	1.2907343125956
4	67274	131.4	1.2907343125956
4	67322	131.5	1.2907343125956
4	67370	131.6	1.2907343125956
4	67418	131.7	1.2907343125956
4	67466	131.8	1.2907343125956
4	67514	131.9	1.2907343125956
4	67562	132	1.2907343125956
4	67610	132.1	1.2907343125956
4	67658	132.2	1.2907343125956
4	67720	132.3	1.2907343125956
4	67778	132.4	1.2907343125956
4	67840	132.5	1.2907343125956
4	67902	132.6	1.2907343125956
4	67960	132.7	1.2907343125956
4	68022	132.8	1.2907343125956
4	68080	132.9	1.2907343125956
4	68142	133	1.2907343125956
4	68200	133.1	1.2907343125956
4	68258	133.2	1.2907343125956
4	68316	133.3	1.2907343125956
4	68378	133.4	1.2907343125956
4	68440	133.5	1.2907343125956
4	68498	133.6	1.2907343125956
4	68556	133.7	1.2907343125956
4	68618	133.8	1.2907343125956
4	68680	133.9	1.2907343125956
4	68742	134	1.2907343125956
4	68804	134.1	1.2907343125956
4	68862	134.2	1.2907343125956
4	68924	134.3	1.2907343125956
4	68986	134.4	1.2907343125956
4	69048	134.5	1.2907343125956
4	69096	134.6	1.2907343125956
4	69144	134.7	1.2907343125956
4	69192	134.8	1.2907343125956
4	69240	134.9	1.2907343125956
4	69288	135	1.2907343125956
4	69336	135.1	1.2907343125956
4	69384	135.2	1.2907343125956
4	69432	135.3	0.973
4	69480	135.4	0.973
4	69528	135.5	0.973
4	69576	135.6	0.973
4	69624	135.7	0.973
4	69672	135.8	0.973
4	69720	135.9	0.973
4	69768	136	0.973
4	69816	136.1	0.973
4	69864	136.2	2.3246996859558
4	69912	136.3	5.2894618574374
4	69960	136.4	7.749066293495
4	70008	136.5	9.6829091909956
4	70070	136.6	1.2907343125956
4	70132	136.7	1.2907343125956
4	70194	136.8	1.2907343125956
4	70256	136.9	1.2907343125956
4	70318	137	1.2907343125956
4	70380	137.1	1.2907343125956
4	70442	137.2	1.2907343125956
4	70504	137.3	1.2907343125956
4	70566	137.4	1.2907343125956
4	70614	137.5	1.2907343125956
4	70662	137.6	1.2907343125956
4	70710	137.7	1.2907343125956
4	70758	137.8	1.2907343125956
4	70806	137.9	1.2907343125956
4	70854	138	1.2907343125956
4	70902	138.1	1.2907343125956
4	70950	138.2	1.2907343125956
4	70998	138.3	0.973
4	71046	138.4	0.973
4	71094	138.5	0.973
4	71142	138.6	0.973
4	71190	138.7	0.973
4	71238	138.8	0.973
4	71286	138.9	0.973
4	71334	139	0.973
4	71382	139.1	0.973
4	71430	139.2	0.973
4	71478	139.3	0.973
4	71526	139.4	0.973
4	71574	139.5	0.973
4	71622	139.6	0.973
4	71670	139.7	0.973
4	71718	139.8	0.973
4	71766	139.9	0.973
4	71814	140	0.973
4	71862	140.1	0.973
4	71910	140.2	0.973
4	71958	140.3	0.973
4	72006	140.4	0.973
4	72054	140.5	0.973
4	72102	140.6	0.973
4	72150	140.7	0.973
4	72198	140.8	0.973
4	72246	140.9	0.973
4	72294	141	1.216048739031
4	72342	141.1	4.0600476307046
4	72390	141.2	6.5191116503142
4	72438	141.3	8.9793950711398
4	72486	141.4	5.2808031909956
4	72534	141.5	1.2907343125956
4	72582	141.6	1.2907343125956
4	72630	141.7	1.2907343125956
4	72678	141.8	1.2907343125956
4	72726	141.9	1.2907343125956
4	72774	142	1.2907343125956
4	72822	142.1	1.2907343125956
4	72870	142.2	0.973
4	72918	142.3	0.973
4	72966	142.4	0.973
4	73014	142.5	0.973
4	73062	142.6	0.973
4	73110	142.7	0.973
4	73158	142.8	0.973
4	73206	142.9	0.973
4	73254	143	0.973
4	73302	143.1	0.973
4	73350	143.2	0.973
4	73398	143.3	0.973
4	73446	143.4	0.973
4	73494	143.5	0.973
4	73542	143.6	0.973
4	73590	143.7	0.973
4	73638	143.8	0.973
4	73686	143.9	0.973
4	73734	144	0.973
4	73782	144.1	0.973
4	73830	144.2	0.973
4	73878	144.3	1.5149019122483
4	73926	144.4	4.5517894876467
4	73974	144.5	7.0110530456371
4	74022	144.6	9.4716468594995
4	74084	144.7	3.5199607909956
4	74146	144.8	1.2907343125956
4	74208	144.9	1.2907343125956
4	74270	145	1.2907343125956
4	74328	145.1	1.2907343125956
4	74386	145.2	1.2907343125956
4	74444	145.3	1.2907343125956
4	74506	145.4	1.2907343125956
4	74568	145.5	1.2907343125956
4	74616	145.6	1.2907343125956
4	74664	145.7	1.2907343125956
4	74712	145.8	1.2907343125956
4	74760	145.9	1.2907343125956
4	74808	146	1.2907343125956
4	74856	146.1	1.2907343125956
4	74904	146.2	1.2907343125956
4	74952	146.3	0.973
4	75000	146.4	0.973
4	75048	146.5	0.973
4	75096	146.6	0.973
4	75144	146.7	4.7777754180367
4	75192	146.8	7.2371381074355
4	75240	146.9	9.6978819950208
4	75298	147	2.7107806389833
4	75360	147.1	1.2907343125956
4	75422	147.2	1.2907343125956
4	75484	147.3	1.2907343125956
4	75546	147.4	1.2907343125956
4	75608	147.5	1.2907343125956
4	75670	147.6	1.2907343125956
4	75728	147.7	1.2907343125956
4	75790	147.8	1.2907343125956
4	75838	147.9	1.2907343125956
4	75886	148	1.2907343125956
4	75934	148.1	1.2907343125956
4	75982	148.2	1.2907343125956
4	76030	148.3	1.2907343125956
4	76078	148.4	1.2907343125956
4	76126	148.5	1.2907343125956
4	76174	148.6	1.2907343125956
4	76222	148.7	1.2907343125956
4	76270	148.8	1.2907343125956
4	76318	148.9	1.2907343125956
4	76366	149	1.2907343125956
4	76414	149.1	1.2907343125956
4	76462	149.2	1.2907343125956
4	76510	149.3	1.2907343125956
4	76558	149.4	1.2907343125956
4	76606	149.5	1.2907343125956
4	76654	149.6	1.2907343125956
4	76702	149.7	1.2907343125956
4	76750	149.8	1.2907343125956
4	76798	149.9	1.2907343125956
4	76846	150	1.2907343125956
4	76894	150.1	1.2907343125956
4	76942	150.2	1.2907343125956
4	76990	150.3	1.2907343125956
4	77038	150.4	1.2907343125956
4	77086	150.5	1.2907343125956
4	77134	150.6	1.2907343125956
4	77182	150.7	1.2907343125956
4	77230	150.8	1.2907343125956
4	77278	150.9	1.2907343125956
4	77326	151	1.2907343125956
4	77374	151.1	1.2907343125956
4	77422	151.2	1.2907343125956
4	77470	151.3	1.2907343125956
4	77518	151.4	1.2907343125956
4	77566	151.5	1.2907343125956
4	77614	151.6	1.2907343125956
4	77662	151.7	1.2907343125956
4	77724	151.8	1.2907343125956
4	77786	151.9	1.2907343125956
4	77848	152	1.2907343125956
4	77910	152.1	1.2907343125956
4	77972	152.2	1.2907343125956
4	78034	152.3	1.2907343125956
4	78096	152.4	1.2907343125956
4	78158	152.5	1.2907343125956
4	78220	152.6	1.2907343125956
4	78268	152.7	1.2907343125956
4	78316	152.8	1.2907343125956
4	78364	152.9	1.2907343125956
4	78412	153	1.2907343125956
4	78460	153.1	1.2907343125956
4	78508	153.2	1.2907343125956
4	78556	153.3	1.2907343125956
4	78604	153.4	1.2907343125956
4	78652	153.5	1.2907343125956
4	78700	153.6	1.2907343125956
4	78748	153.7	1.2907343125956
4	78806	153.8	1.2907343125956
4	78868	153.9	1.2907343125956
4	78930	154	1.2907343125956
4	78988	154.1	1.2907343125956
4	79046	154.2	1.2907343125956
4	79108	154.3	1.2907343125956
4	79170	154.4	1.2907343125956
4	79228	154.5	1.2907343125956
4	79286	154.6	1.2907343125956
4	79334	154.7	1.2907343125956
4	79382	154.8	1.2907343125956
4	79430	154.9	1.2907343125956
4	79478	155	1.2907343125956
4	79526	155.1	1.2907343125956
4	79574	155.2	1.2907343125956
4	79622	155.3	1.2907343125956
4	79670	155.4	1.2907343125956
4	79718	155.5	1.2907343125956
4	79766	155.6	1.2907343125956
4	79814	155.7	1.2907343125956
4	79862	155.8	1.2907343125956
4	79910	155.9	1.2907343125956
4	79958	156	1.2907343125956
4	80006	156.1	1.2907343125956
4	80054	156.2	1.2907343125956
4	80102	156.3	1.2907343125956
4	80150	156.4	1.2907343125956
4	80198	156.5	1.2907343125956
4	80246	156.6	1.2907343125956
4	80294	156.7	1.2907343125956
4	80342	156.8	1.2907343125956
4	80390	156.9	1.2907343125956
4	80438	157	1.2907343125956
4	80486	157.1	1.2907343125956
4	80548	157.2	1.2907343125956
4	80610	157.3	1.2907343125956
4	80668	157.4	1.2907343125956
4	80730	157.5	1.2907343125956
4	80792	157.6	1.2907343125956
4	80854	157.7	1.2907343125956
4	80916	157.8	1.2907343125956
4	80978	157.9	1.2907343125956
4	81040	158	1.2907343125956
4	81088	158.1	1.2907343125956
4	81136	158.2	1.2907343125956
4	81184	158.3	1.2907343125956
4	81232	158.4	1.2907343125956
4	81280	158.5	1.2907343125956
4	81328	158.6	1.2907343125956
4	81376	158.7	1.2907343125956
4	81424	158.8	1.2907343125956
4	81472	158.9	1.2907343125956
4	81520	159	1.2907343125956
4	81568	159.1	1.2907343125956
4	81626	159.2	1.2907343125956
4	81688	159.3	1.2907343125956
4	81746	159.4	1.2907343125956
4	81804	159.5	1.2907343125956
4	81866	159.6	1.2907343125956
4	81924	159.7	1.2907343125956
4	81986	159.8	1.2907343125956
4	82048	159.9	1.2907343125956
4	82110	160	1.2907343125956
4	82172	160.1	1.2907343125956
4	82234	160.2	1.2907343125956
4	82296	160.3	1.2907343125956
4	82358	160.4	1.2907343125956
4	82420	160.5	1.2907343125956
4	82478	160.6	1.2907343125956
4	82540	160.7	1.2907343125956
4	82598	160.8	1.2907343125956
4	82656	160.9	1.2907343125956
4	82714	161	1.2907343125956
4	82776	161.1	1.2907343125956
4	82834	161.2	1.2907343125956
4	82896	161.3	1.2907343125956
4	82954	161.4	1.2907343125956
4	83002	161.5	1.2907343125956
4	83050	161.6	1.2907343125956
4	83098	161.7	1.2907343125956
4	83146	161.8	1.2907343125956
4	83194	161.9	1.2907343125956
4	83242	162	1.2907343125956
4	83290	162.1	1.2907343125956
4	83338	162.2	1.2907343125956
4	83386	162.3	1.2907343125956
4	83434	162.4	1.2907343125956
4	83482	162.5	1.2907343125956
4	83544	162.6	1.2907343125956
4	83606	162.7	1.2907343125956
4	83664	162.8	1.2907343125956
4	83722	162.9	1.2907343125956
4	83784	163	1.2907343125956
4	83846	163.1	1.2907343125956
4	83904	163.2	1.2907343125956
4	83966	163.3	1.2907343125956
4	84028	163.4	1.2907343125956
4	84076	163.5	1.2907343125956
4	84124	163.6	1.2907343125956
4	84172	163.7	1.2907343125956
4	84220	163.8	1.2907343125956
4	84268	163.9	1.2907343125956
4	84316	164	1.2907343125956
4	84364	164.1	1.2907343125956
4	84412	164.2	1.2907343125956
4	84460	164.3	1.2907343125956
4	84508	164.4	1.2907343125956
4	84556	164.5	1.2907343125956
4	84604	164.6	1.2907343125956
4	84652	164.7	1.2907343125956
4	84700	164.8	1.2907343125956
4	84748	164.9	1.2907343125956
4	84796	165	1.2907343125956
4	84844	165.1	1.2907343125956
4	84892	165.2	1.2907343125956
4	84940	165.3	1.2907343125956
4	84988	165.4	1.2907343125956
4	85036	165.5	1.2907343125956
4	85084	165.6	1.2907343125956
4	85132	165.7	1.2907343125956
4	85180	165.8	1.2907343125956
4	85228	165.9	1.2907343125956
4	85276	166	1.2907343125956
4	85324	166.1	1.2907343125956
4	85372	166.2	1.2907343125956
4	85420	166.3	1.2907343125956
4	85468	166.4	1.2907343125956
4	85516	166.5	1.2907343125956
4	85564	166.6	1.2907343125956
4	85612	166.7	1.2907343125956
4	85660	166.8	1.2907343125956
4	85708	166.9	1.2907343125956
4	85756	167	1.2907343125956
4	85804	167.1	1.2907343125956
4	85852	167.2	1.2907343125956
4	85900	167.3	1.2907343125956
4	85948	167.4	1.2907343125956
4	86010	167.5	1.2907343125956
4	86072	167.6	1.2907343125956
4	86130	167.7	1.2907343125956
4	86192	167.8	1.2907343125956
4	86254	167.9	1.2907343125956
4	86312	168	1.2907343125956
4	86374	168.1	1.2907343125956
4	86436	168.2	1.2907343125956
4	86498	168.3	1.2907343125956
4	86546	168.4	1.2907343125956
4	86594	168.5	1.2907343125956
4	86642	168.6	1.2907343125956
4	86690	168.7	1.2907343125956
4	86738	168.8	1.2907343125956
4	86786	168.9	1.2907343125956
4	86834	169	1.2907343125956
4	86882	169.1	1.2907343125956
4	86930	169.2	1.2907343125956
4	86978	169.3	1.2907343125956
4	87026	169.4	1.2907343125956
4	87084	169.5	1.2907343125956
4	87146	169.6	1.2907343125956
4	87208	169.7	1.2907343125956
4	87270	169.8	1.2907343125956
4	87328	169.9	1.2907343125956
4	87390	170	1.2907343125956
4	87448	170.1	1.2907343125956
4	87510	170.2	1.2907343125956
4	87572	170.3	1.2907343125956
4	87620	170.4	1.2907343125956
4	87668	170.5	1.2907343125956
4	87716	170.6	1.2907343125956
4	87764	170.7	1.2907343125956
4	87812	170.8	1.2907343125956
4	87860	170.9	1.2907343125956
4	87908	171	1.2907343125956
4	87956	171.1	1.2907343125956
4	88004	171.2	1.2907343125956
4	88052	171.3	1.2907343125956
4	88100	171.4	1.2907343125956
4	88148	171.5	1.2907343125956
4	88196	171.6	1.2907343125956
4	88244	171.7	1.2907343125956
4	88292	171.8	1.2907343125956
4	88340	171.9	0.973
4	88388	172	0.973
4	88436	172.1	0.973
4	88484	172.2	0.973
4	88532	172.3	0.973
4	88580	172.4	0.973
4	88628	172.5	0.973
4	88676	172.6	0.973
4	88724	172.7	0.973
4	88772	172.8	0.973
4	88820	172.9	0.973
4	88868	173	0.973
4	88916	173.1	0.973
4	88964	173.2	1.1389240923789
4	89012	173.3	3.8141869562893
4	89060	173.4	6.2731595208077
4	89108	173.5	8.7332960592141
4	89156	173.6	6.1612243909956
4	89204	173.7	1.2907343125956
4	89252	173.8	1.2907343125956
4	89300	173.9	1.2907343125956
4	89348	174	1.2907343125956
4	89396	174.1	1.2907343125956
4	89444	174.2	1.2907343125956
4	89492	174.3	1.2907343125956
4	89540	174.4	1.2907343125956
4	89588	174.5	1.2907343125956
4	89636	174.6	1.2907343125956
4	89684	174.7	1.2907343125956
4	89732	174.8	1.2907343125956
4	89780	174.9	1.2907343125956
4	89828	175	1.2907343125956
4	89876	175.1	1.2907343125956
4	89924	175.2	0.973
4	89972	175.3	0.973
4	90020	175.4	0.973
4	90068	175.5	0.973
4	90116	175.6	0.973
4	90164	175.7	0.973
4	90212	175.8	0.973
4	90260	175.9	0.973
4	90308	176	0.973
4	90356	176.1	0.973
4	90404	176.2	0.973
4	90452	176.3	0.973
4	90500	176.4	0.973
4	90548	176.5	0.973
4	90596	176.6	0.973
4	90644	176.7	0.973
4	90692	176.8	0.973
4	90740	176.9	0.973
4	90788	177	0.973
4	90836	177.1	0.973
4	90884	177.2	0.973
4	90932	177.3	0.973
4	90980	177.4	0.973
4	91028	177.5	0.973
4	91076	177.6	0.973
4	91124	177.7	3.56833237888
4	91172	177.8	6.02721903104
4	91220	177.9	8.48721422976
4	91268	178	7.0416455909956
4	91316	178.1	1.2907343125956
4	91364	178.2	1.2907343125956
4	91412	178.3	1.2907343125956
4	91460	178.4	1.2907343125956
4	91508	178.5	1.2907343125956
4	91556	178.6	1.2907343125956
4	91604	178.7	1.2907343125956
4	91652	178.8	1.2907343125956
4	91700	178.9	1.2907343125956
4	91748	179	1.2907343125956
4	91796	179.1	1.2907343125956
4	91844	179.2	1.2907343125956
4	91892	179.3	1.2907343125956
4	91940	179.4	1.2907343125956
4	91988	179.5	1.2907343125956
4	92036	179.6	0.973
4	92084	179.7	0.973
4	92132	179.8	0.973
4	92180	179.9	0.973
4	92228	180	0.973
4	92276	180.1	0.973
4	92324	180.2	0.973
4	92372	180.3	0.973
4	92420	180.4	2.3246996859558
4	92468	180.5	5.2894618574374
4	92516	180.6	7.749066293495
4	92564	180.7	9.6829091909956
4	92612	180.8	1.2907343125956
4	92660	180.9	1.2907343125956
4	92708	181	1.2907343125956
4	92756	181.1	1.2907343125956
4	92804	181.2	1.2907343125956
4	92852	181.3	1.2907343125956
4	92900	181.4	1.2907343125956
4	92948	181.5	1.2907343125956
4	92996	181.6	0.973
4	93044	181.7	0.973
4	93092	181.8	0.973
4	93140	181.9	0.973
4	93188	182	0.973
4	93236	182.1	0.973
4	93284	182.2	0.973
4	93332	182.3	0.973
4	93380	182.4	0.973
4	93428	182.5	0.973
4	93476	182.6	0.973
4	93524	182.7	0.973
4	93572	182.8	0.973
4	93620	182.9	0.973
4	93668	183	0.973
4	93716	183.1	0.973
4	93764	183.2	0.973
4	93812	183.3	0.973
4	93860	183.4	0.973
4	93908	183.5	0.973
4	93956	183.6	0.973
4	94004	183.7	0.973
4	94052	183.8	0.973
4	94100	183.9	0.973
4	94148	184	0.973
4	94196	184.1	0.973
4	94244	184.2	0.973
4	94292	184.3	0.973
4	94340	184.4	0.973
4	94388	184.5	0.973
4	94436	184.6	0.973
4	94484	184.7	0.973
4	94532	184.8	0.973
4	94580	184.9	0.973
4	94628	185	0.973
4	94676	185.1	0.973
4	94724	185.2	0.973
4	94772	185.3	0.973
4	94820	185.4	0.973
4	94868	185.5	0.973
4	94916	185.6	0.973
4	94964	185.7	0.973
4	95012	185.8	0.973
4	95060	185.9	0.973
4	95108	186	0.973
4	95156	186.1	0.973
4	95204	186.2	0.973
4	95252	186.3	0.973
4	95300	186.4	0.973
4	95348	186.5	0.973
4	95396	186.6	0.973
4	95444	186.7	0.973
4	95492	186.8	0.973
4	95540	186.9	0.973
4	95588	187	0.973
4	95636	187.1	0.973
4	95684	187.2	0.973
4	95732	187.3	0.973
4	95780	187.4	0.973
4	95828	187.5	0.973
4	95876	187.6	0.973
4	95924	187.7	0.973
4	95972	187.8	0.973
4	96020	187.9	0.973
4	96068	188	0.973
4	96116	188.1	0.973
4	96164	188.2	0.973
4	96212	188.3	0.973
4	96260	188.4	0.973
4	96308	188.5	0.973
4	96356	188.6	0.973
4	96404	188.7	0.973
4	96452	188.8	0.973
4	96500	188.9	0.973
4	96548	189	0.973
4	96596	189.1	0.973
4	96644	189.2	0.973
4	96692	189.3	0.973
4	96740	189.4	0.973
4	96788	189.5	0.973
4	96836	189.6	0.973
4	96884	189.7	0.973
4	96932	189.8	0.973
4	96980	189.9	0.973
4	97028	190	0.973
4	97076	190.1	0.973
4	97124	190.2	0.973
4	97172	190.3	0.973
4	97220	190.4	0.973
4	97268	190.5	0.973
4	97316	190.6	0.973
4	97364	190.7	0.973
4	97412	190.8	0.973
4	97460	190.9	0.973
4	97508	191	0.973
4	97556	191.1	0.973
4	97604	191.2	0.973
4	97652	191.3	0.973
4	97700	191.4	0.973
4	97748	191.5	0.973
4	97796	191.6	0.973
4	97858	191.7	3.56833237888
4	97916	191.8	6.02721903104
4	98040	191.9	8.48721422976
4	98154	192	7.0416455909956
4	98216	192.1	1.2907343125956
4	98278	192.2	1.2907343125956
4	98336	192.3	1.2907343125956
4	98398	192.4	1.2907343125956
4	98460	192.5	1.2907343125956
4	98522	192.6	1.2907343125956
4	98584	192.7	1.2907343125956
4	98642	192.8	1.2907343125956
4	98766	192.9	1.2907343125956
4	98876	193	1.2907343125956
4	98938	193.1	1.2907343125956
4	99000	193.2	1.2907343125956
4	99062	193.3	0.973
4	99124	193.4	3.3280765597308
4	99182	193.5	1.2907343125956
4	99244	193.6	1.2907343125956
4	99306	193.7	1.2907343125956
4	99368	193.8	1.2907343125956
4	99492	193.9	1.2907343125956
4	99602	194	1.2907343125956
4	99664	194.1	1.2907343125956
4	99726	194.2	1.2907343125956
4	99788	194.3	1.2907343125956
4	99850	194.4	1.2907343125956
4	99912	194.5	1.2907343125956
4	99974	194.6	1.2907343125956
4	100036	194.7	1.2907343125956
4	100098	194.8	1.2907343125956
4	100156	194.9	1.2907343125956
4	100218	195	1.2907343125956
4	100280	195.1	1.2907343125956
4	100342	195.2	1.2907343125956
4	100404	195.3	0.973
4	100466	195.4	0.973
4	100524	195.5	0.973
4	100582	195.6	0.973
4	100640	195.7	0.973
4	100702	195.8	0.973
4	100760	195.9	0.973
4	100822	196	0.973
4	100880	196.1	0.973
4	100938	196.2	0.973
4	101000	196.3	0.973
4	101058	196.4	0.973
4	101116	196.5	1.1389240923789
4	101178	196.6	3.8141869562893
4	101240	196.7	6.2731595208077
4	101302	196.8	8.7332960592141
4	101364	196.9	6.1612243909956
4	101422	197	1.2907343125956
4	101484	197.1	1.2907343125956
4	101546	197.2	1.2907343125956
4	101604	197.3	1.2907343125956
4	101662	197.4	1.2907343125956
4	101720	197.5	1.2907343125956
4	101778	197.6	1.2907343125956
4	101840	197.7	1.2907343125956
4	101902	197.8	1.2907343125956
4	101960	197.9	1.2907343125956
4	102022	198	1.2907343125956
4	102084	198.1	1.2907343125956
4	102146	198.2	1.2907343125956
4	102208	198.3	1.2907343125956
4	102266	198.4	1.2907343125956
4	102328	198.5	1.2907343125956
4	102390	198.6	1.2907343125956
4	102452	198.7	1.2907343125956
4	102514	198.8	1.2907343125956
4	102576	198.9	1.2907343125956
4	102638	199	1.2907343125956
4	102700	199.1	1.2907343125956
4	102762	199.2	1.2907343125956
4	102824	199.3	1.2907343125956
4	102886	199.4	1.2907343125956
4	102948	199.5	1.2907343125956
4	103010	199.6	1.2907343125956
4	103072	199.7	1.2907343125956
4	103130	199.8	1.2907343125956
4	103192	199.9	1.2907343125956
4	103250	200	1.2907343125956
4	103308	200.1	1.2907343125956
4	103366	200.2	1.2907343125956
4	103428	200.3	1.2907343125956
4	103486	200.4	1.2907343125956
4	103548	200.5	1.2907343125956
4	103610	200.6	1.2907343125956
4	103672	200.7	1.2907343125956
4	103734	200.8	1.2907343125956
4	103796	200.9	1.2907343125956
4	103854	201	1.2907343125956
4	103916	201.1	1.2907343125956
4	103978	201.2	1.2907343125956
4	104036	201.3	1.2907343125956
4	104098	201.4	1.2907343125956
4	104156	201.5	1.2907343125956
4	104218	201.6	1.2907343125956
4	104280	201.7	1.2907343125956
4	104342	201.8	1.2907343125956
4	104404	201.9	1.2907343125956
4	104462	202	1.2907343125956
4	104524	202.1	1.2907343125956
4	104586	202.2	1.2907343125956
4	104648	202.3	1.2907343125956
4	104706	202.4	1.2907343125956
4	104768	202.5	1.2907343125956
4	104830	202.6	1.2907343125956
4	104888	202.7	1.2907343125956
4	104950	202.8	1.2907343125956
4	105012	202.9	1.2907343125956
4	105074	203	1.2907343125956
4	105132	203.1	1.2907343125956
4	105190	203.2	1.2907343125956
4	105248	203.3	1.2907343125956
4	105310	203.4	1.2907343125956
4	105372	203.5	1.2907343125956
4	105430	203.6	1.2907343125956
4	105492	203.7	1.2907343125956
4	105550	203.8	1.2907343125956
4	105608	203.9	1.2907343125956
4	105670	204	1.2907343125956
4	105732	204.1	1.2907343125956
4	105790	204.2	1.2907343125956
4	105852	204.3	1.2907343125956
4	105914	204.4	1.2907343125956
4	105976	204.5	1.2907343125956
4	106038	204.6	1.2907343125956
4	106096	204.7	1.2907343125956
4	106158	204.8	1.2907343125956
4	106216	204.9	1.2907343125956
4	106278	205	1.2907343125956
4	106340	205.1	1.2907343125956
4	106402	205.2	1.2907343125956
4	106464	205.3	1.2907343125956
4	106526	205.4	1.2907343125956
4	106588	205.5	1.2907343125956
4	106646	205.6	1.2907343125956
4	106708	205.7	1.2907343125956
4	106770	205.8	1.2907343125956
4	106828	205.9	1.2907343125956
4	106886	206	1.2907343125956
4	106948	206.1	1.2907343125956
4	107006	206.2	1.2907343125956
4	107068	206.3	1.2907343125956
4	107130	206.4	1.2907343125956
4	107192	206.5	1.2907343125956
4	107254	206.6	1.2907343125956
4	107316	206.7	1.2907343125956
4	107378	206.8	1.2907343125956
4	107440	206.9	1.2907343125956
4	107502	207	1.2907343125956
4	107564	207.1	1.2907343125956
4	107626	207.2	1.2907343125956
4	107688	207.3	1.2907343125956
4	107746	207.4	1.2907343125956
4	107808	207.5	1.2907343125956
4	107870	207.6	1.2907343125956
4	107928	207.7	1.2907343125956
4	107986	207.8	1.2907343125956
4	108048	207.9	1.2907343125956
4	108110	208	1.2907343125956
4	108172	208.1	1.2907343125956
4	108234	208.2	1.2907343125956
4	108292	208.3	1.2907343125956
4	108354	208.4	1.2907343125956
4	108416	208.5	1.2907343125956
4	108478	208.6	1.2907343125956
4	108540	208.7	1.2907343125956
4	108602	208.8	1.2907343125956
4	108660	208.9	1.2907343125956
4	108722	209	1.2907343125956
4	108784	209.1	1.2907343125956
4	108846	209.2	1.2907343125956
4	108904	209.3	1.2907343125956
4	108962	209.4	1.2907343125956
4	109024	209.5	1.2907343125956
4	109082	209.6	1.2907343125956
4	109140	209.7	1.2907343125956
4	109202	209.8	1.2907343125956
4	109260	209.9	1.2907343125956
4	109322	210	1.2907343125956
4	109384	210.1	1.2907343125956
4	109446	210.2	1.2907343125956
4	109508	210.3	1.2907343125956
4	109570	210.4	1.2907343125956
4	109632	210.5	1.2907343125956
4	109690	210.6	1.2907343125956
4	109752	210.7	1.2907343125956
4	109814	210.8	1.2907343125956
4	109876	210.9	1.2907343125956
4	109934	211	1.2907343125956
4	109996	211.1	1.2907343125956
4	110058	211.2	1.2907343125956
4	110120	211.3	1.2907343125956
4	110182	211.4	1.2907343125956
4	110244	211.5	1.2907343125956
4	110306	211.6	1.2907343125956
4	110368	211.7	1.2907343125956
4	110430	211.8	1.2907343125956
4	110492	211.9	1.2907343125956
4	110554	212	1.2907343125956
4	110616	212.1	1.2907343125956
4	110674	212.2	1.2907343125956
4	110736	212.3	1.2907343125956
4	110798	212.4	1.2907343125956
4	110860	212.5	1.2907343125956
4	110922	212.6	1.2907343125956
4	110984	212.7	1.2907343125956
4	111046	212.8	1.2907343125956
4	111104	212.9	1.2907343125956
4	111166	213	1.2907343125956
4	111228	213.1	1.2907343125956
4	111290	213.2	1.2907343125956
4	111352	213.3	1.2907343125956
4	111410	213.4	1.2907343125956
4	111468	213.5	1.2907343125956
4	111530	213.6	1.2907343125956
4	111588	213.7	1.2907343125956
4	111650	213.8	1.2907343125956
4	111712	213.9	1.2907343125956
4	111774	214	1.2907343125956
4	111836	214.1	1.2907343125956
4	111894	214.2	1.2907343125956
4	111956	214.3	1.2907343125956
4	112018	214.4	1.2907343125956
4	112080	214.5	1.2907343125956
4	112142	214.6	1.2907343125956
4	112204	214.7	1.2907343125956
4	112266	214.8	1.2907343125956
4	112328	214.9	1.2907343125956
4	112386	215	1.2907343125956
4	112448	215.1	1.2907343125956
4	112510	215.2	1.2907343125956
4	112568	215.3	1.2907343125956
4	112630	215.4	1.2907343125956
4	112692	215.5	1.2907343125956
4	112754	215.6	1.2907343125956
4	112816	215.7	1.2907343125956
4	112874	215.8	1.2907343125956
4	112936	215.9	1.2907343125956
4	112994	216	1.2907343125956
4	113056	216.1	1.2907343125956
4	113118	216.2	1.2907343125956
4	113180	216.3	1.2907343125956
4	113242	216.4	1.2907343125956
4	113300	216.5	1.2907343125956
4	113362	216.6	1.2907343125956
4	113424	216.7	1.2907343125956
4	113486	216.8	1.2907343125956
4	113548	216.9	1.2907343125956
4	113610	217	1.2907343125956
4	113672	217.1	1.2907343125956
4	113734	217.2	1.2907343125956
4	113796	217.3	1.2907343125956
4	113854	217.4	1.2907343125956
4	113916	217.5	1.2907343125956
4	113974	217.6	1.2907343125956
4	114032	217.7	1.2907343125956
4	114094	217.8	1.2907343125956
4	114156	217.9	1.2907343125956
4	114218	218	1.2907343125956
4	114276	218.1	1.2907343125956
4	114334	218.2	1.2907343125956
4	114396	218.3	1.2907343125956
4	114458	218.4	1.2907343125956
4	114520	218.5	1.2907343125956
4	114578	218.6	1.2907343125956
4	114636	218.7	1.2907343125956
4	114694	218.8	1.2907343125956
4	114756	218.9	1.2907343125956
4	114818	219	1.2907343125956
4	114876	219.1	1.2907343125956
4	114938	219.2	1.2907343125956
4	115000	219.3	1.2907343125956
4	115058	219.4	1.2907343125956
4	115116	219.5	1.2907343125956
4	115178	219.6	1.2907343125956
4	115240	219.7	1.2907343125956
4	115298	219.8	1.2907343125956
4	115360	219.9	1.2907343125956
4	115418	220	1.2907343125956
4	115480	220.1	1.2907343125956
4	115542	220.2	1.2907343125956
4	115604	220.3	1.2907343125956
4	115666	220.4	1.2907343125956
4	115728	220.5	1.2907343125956
4	115790	220.6	1.2907343125956
4	115852	220.7	1.2907343125956
4	115914	220.8	1.2907343125956
4	115972	220.9	1.2907343125956
4	116034	221	1.2907343125956
4	116096	221.1	1.2907343125956
4	116158	221.2	1.2907343125956
4	116220	221.3	1.2907343125956
4	116278	221.4	1.2907343125956
4	116340	221.5	1.2907343125956
4	116398	221.6	1.2907343125956
4	116460	221.7	1.2907343125956
4	116522	221.8	1.2907343125956
4	116584	221.9	1.2907343125956
4	116646	222	1.2907343125956
4	116708	222.1	1.2907343125956
4	116770	222.2	1.2907343125956
4	116832	222.3	1.2907343125956
4	116894	222.4	1.2907343125956
4	116956	222.5	1.2907343125956
4	117018	222.6	1.2907343125956
4	117080	222.7	1.2907343125956
4	117138	222.8	1.2907343125956
4	117200	222.9	1.2907343125956
4	117262	223	1.2907343125956
4	117320	223.1	1.2907343125956
4	117382	223.2	1.2907343125956
4	117444	223.3	1.2907343125956
4	117506	223.4	1.2907343125956
4	117568	223.5	1.2907343125956
4	117630	223.6	1.2907343125956
4	117692	223.7	1.2907343125956
4	117750	223.8	1.2907343125956
4	117808	223.9	1.2907343125956
4	117870	224	1.2907343125956
4	117932	224.1	1.2907343125956
4	117994	224.2	1.2907343125956
4	118052	224.3	1.2907343125956
4	118110	224.4	1.2907343125956
4	118172	224.5	1.2907343125956
4	118234	224.6	1.2907343125956
4	118296	224.7	1.2907343125956
4	118354	224.8	1.2907343125956
4	118412	224.9	1.2907343125956
4	118470	225	1.2907343125956
4	118532	225.1	1.2907343125956
4	118590	225.2	1.2907343125956
4	118652	225.3	1.2907343125956
4	118710	225.4	1.2907343125956
4	118768	225.5	1.2907343125956
4	118830	225.6	1.2907343125956
4	118892	225.7	1.2907343125956
4	118954	225.8	1.2907343125956
4	119016	225.9	1.2907343125956
4	119078	226	1.2907343125956
4	119140	226.1	1.2907343125956
4	119198	226.2	1.2907343125956
4	119260	226.3	1.2907343125956
4	119322	226.4	1.2907343125956
4	119380	226.5	1.2907343125956
4	119442	226.6	1.2907343125956
4	119500	226.7	1.2907343125956
4	119562	226.8	1.2907343125956
4	119624	226.9	1.2907343125956
4	119686	227	1.2907343125956
4	119748	227.1	1.2907343125956
4	119810	227.2	1.2907343125956
4	119872	227.3	1.2907343125956
4	119934	227.4	1.2907343125956
4	119996	227.5	1.2907343125956
4	120058	227.6	1.2907343125956
4	120120	227.7	1.2907343125956
4	120182	227.8	1.2907343125956
4	120244	227.9	1.2907343125956
4	120306	228	1.2907343125956
4	120368	228.1	1.2907343125956
4	120430	228.2	1.2907343125956
4	120492	228.3	1.2907343125956
4	120550	228.4	1.2907343125956
4	120612	228.5	1.2907343125956
4	120674	228.6	1.2907343125956
4	120736	228.7	1.2907343125956
4	120798	228.8	1.2907343125956
4	120860	228.9	1.2907343125956
4	120922	229	1.2907343125956
4	120984	229.1	1.2907343125956
4	121046	229.2	1.2907343125956
4	121108	229.3	1.2907343125956
4	121170	229.4	1.2907343125956
4	121232	229.5	1.2907343125956
4	121290	229.6	1.2907343125956
4	121348	229.7	1.2907343125956
4	121406	229.8	1.2907343125956
4	121468	229.9	1.2907343125956
4	121530	230	1.2907343125956
4	121592	230.1	1.2907343125956
4	121654	230.2	1.2907343125956
4	121716	230.3	1.2907343125956
4	121778	230.4	1.2907343125956
4	121840	230.5	1.2907343125956
4	121902	230.6	1.2907343125956
4	121964	230.7	1.2907343125956
4	122026	230.8	1.2907343125956
4	122088	230.9	1.2907343125956
4	122150	231	1.2907343125956
4	122212	231.1	1.2907343125956
4	122274	231.2	1.2907343125956
4	122336	231.3	1.2907343125956
4	122398	231.4	1.2907343125956
4	122460	231.5	1.2907343125956
4	122522	231.6	1.2907343125956
4	122584	231.7	1.2907343125956
4	122646	231.8	1.2907343125956
4	122708	231.9	1.2907343125956
4	122770	232	1.2907343125956
4	122832	232.1	1.2907343125956
4	122894	232.2	1.2907343125956
4	122956	232.3	1.2907343125956
4	123014	232.4	1.2907343125956
4	123076	232.5	1.2907343125956
4	123138	232.6	1.2907343125956
4	123200	232.7	1.2907343125956
4	123258	232.8	1.2907343125956
4	123316	232.9	1.2907343125956
4	123374	233	1.2907343125956
4	123436	233.1	1.2907343125956
4	123498	233.2	1.2907343125956
4	123560	233.3	1.2907343125956
4	123622	233.4	1.2907343125956
4	123684	233.5	1.2907343125956
4	123742	233.6	1.2907343125956
4	123804	233.7	1.2907343125956
4	123866	233.8	1.2907343125956
4	123928	233.9	1.2907343125956
4	123986	234	1.2907343125956
4	124048	234.1	1.2907343125956
4	124110	234.2	1.2907343125956
4	124168	234.3	1.2907343125956
4	124230	234.4	1.2907343125956
4	124292	234.5	1.2907343125956
4	124350	234.6	1.2907343125956
4	124408	234.7	1.2907343125956
4	124470	234.8	1.2907343125956
4	124532	234.9	1.2907343125956
4	124594	235	1.2907343125956
4	124656	235.1	1.2907343125956
4	124718	235.2	1.2907343125956
4	124776	235.3	1.2907343125956
4	124838	235.4	1.2907343125956
4	124900	235.5	1.2907343125956
4	124962	235.6	1.2907343125956
4	125020	235.7	1.2907343125956
4	125082	235.8	1.2907343125956
4	125144	235.9	1.2907343125956
4	125202	236	1.2907343125956
4	125264	236.1	1.2907343125956
4	125322	236.2	1.2907343125956
4	125384	236.3	1.2907343125956
4	125446	236.4	1.2907343125956
4	125508	236.5	1.2907343125956
4	125570	236.6	1.2907343125956
4	125632	236.7	1.2907343125956
4	125694	236.8	1.2907343125956
4	125752	236.9	1.2907343125956
4	125814	237	1.2907343125956
4	125876	237.1	1.2907343125956
4	125938	237.2	1.2907343125956
4	126000	237.3	1.2907343125956
4	126062	237.4	1.2907343125956
4	126124	237.5	1.2907343125956
4	126186	237.6	1.2907343125956
4	126248	237.7	1.2907343125956
4	126310	237.8	1.2907343125956
4	126372	237.9	1.2907343125956
4	126430	238	1.2907343125956
4	126492	238.1	1.2907343125956
4	126554	238.2	1.2907343125956
4	126616	238.3	1.2907343125956
4	126678	238.4	1.2907343125956
4	126740	238.5	1.2907343125956
4	126802	238.6	1.2907343125956
4	126864	238.7	1.2907343125956
4	126926	238.8	1.2907343125956
4	126988	238.9	1.2907343125956
4	127050	239	1.2907343125956
4	127108	239.1	1.2907343125956
4	127170	239.2	1.2907343125956
4	127232	239.3	1.2907343125956
4	127294	239.4	1.2907343125956
4	127356	239.5	1.2907343125956
4	127414	239.6	1.2907343125956
4	127476	239.7	1.2907343125956
4	127538	239.8	1.2907343125956
4	127600	239.9	1.2907343125956
4	127662	240	1.2907343125956
4	127724	240.1	1.2907343125956
4	127786	240.2	1.2907343125956
4	127848	240.3	1.2907343125956
4	127910	240.4	1.2907343125956
4	127968	240.5	1.2907343125956
4	128030	240.6	1.2907343125956
4	128088	240.7	1.2907343125956
4	128146	240.8	1.2907343125956
4	128208	240.9	1.2907343125956
4	128266	241	1.2907343125956
4	128328	241.1	1.2907343125956
4	128390	241.2	1.2907343125956
4	128448	241.3	1.2907343125956
4	128510	241.4	1.2907343125956
4	128572	241.5	1.2907343125956
4	128630	241.6	1.2907343125956
4	128692	241.7	1.2907343125956
4	128750	241.8	1.2907343125956
4	128812	241.9	1.2907343125956
4	128874	242	1.2907343125956
4	128936	242.1	1.2907343125956
4	128994	242.2	1.2907343125956
4	129052	242.3	1.2907343125956
4	129114	242.4	1.2907343125956
4	129172	242.5	1.2907343125956
4	129234	242.6	1.2907343125956
4	129292	242.7	1.2907343125956
4	129354	242.8	1.2907343125956
4	129416	242.9	1.2907343125956
4	129474	243	1.2907343125956
4	129536	243.1	1.2907343125956
4	129598	243.2	1.2907343125956
4	129656	243.3	1.2907343125956
4	129714	243.4	1.2907343125956
4	129776	243.5	1.2907343125956
4	129834	243.6	1.2907343125956
4	129892	243.7	1.2907343125956
4	129954	243.8	1.2907343125956
4	130016	243.9	1.2907343125956
4	130078	244	1.2907343125956
4	130140	244.1	1.2907343125956
4	130202	244.2	1.2907343125956
4	130260	244.3	1.2907343125956
4	130322	244.4	1.2907343125956
4	130384	244.5	1.2907343125956
4	130442	244.6	1.2907343125956
4	130504	244.7	1.2907343125956
4	130566	244.8	1.2907343125956
4	130624	244.9	1.2907343125956
4	130686	245	1.2907343125956
4	130744	245.1	1.2907343125956
4	130806	245.2	1.2907343125956
4	130868	245.3	1.2907343125956
4	130930	245.4	1.2907343125956
4	130988	245.5	1.2907343125956
4	131046	245.6	1.2907343125956
4	131108	245.7	1.2907343125956
4	131170	245.8	1.2907343125956
4	131228	245.9	1.2907343125956
4	131286	246	1.2907343125956
4	131348	246.1	1.2907343125956
4	131410	246.2	1.2907343125956
4	131472	246.3	1.2907343125956
4	131534	246.4	1.2907343125956
4	131592	246.5	1.2907343125956
4	131654	246.6	1.2907343125956
4	131716	246.7	1.2907343125956
4	131778	246.8	1.2907343125956
4	131840	246.9	1.2907343125956
4	131902	247	1.2907343125956
4	131964	247.1	1.2907343125956
4	132026	247.2	1.2907343125956
4	132088	247.3	1.2907343125956
4	132150	247.4	1.2907343125956
4	132208	247.5	1.2907343125956
4	132270	247.6	1.2907343125956
4	132332	247.7	1.2907343125956
4	132394	247.8	1.2907343125956
4	132456	247.9	1.2907343125956
4	132514	248	1.2907343125956
4	132576	248.1	1.2907343125956
4	132638	248.2	1.2907343125956
4	132700	248.3	1.2907343125956
4	132762	248.4	1.2907343125956
4	132824	248.5	1.2907343125956
4	132886	248.6	1.2907343125956
4	132944	248.7	1.2907343125956
4	133006	248.8	1.2907343125956
4	133068	248.9	1.2907343125956
4	133130	249	1.2907343125956
4	133188	249.1	1.2907343125956
4	133250	249.2	1.2907343125956
4	133312	249.3	1.2907343125956
4	133374	249.4	1.2907343125956
4	133436	249.5	1.2907343125956
4	133498	249.6	1.2907343125956
4	133560	249.7	1.2907343125956
4	133622	249.8	1.2907343125956
4	133684	249.9	1.2907343125956
4	133746	250	1.2907343125956
4	133808	250.1	1.2907343125956
4	133870	250.2	1.2907343125956
4	133932	250.3	1.2907343125956
4	133994	250.4	1.2907343125956
4	134056	250.5	1.2907343125956
4	134114	250.6	1.2907343125956
4	134176	250.7	1.2907343125956
4	134234	250.8	1.2907343125956
4	134296	250.9	1.2907343125956
4	134358	251	1.2907343125956
4	134420	251.1	1.2907343125956
4	134482	251.2	1.2907343125956
4	134544	251.3	1.2907343125956
4	134606	251.4	1.2907343125956
4	134668	251.5	1.2907343125956
4	134730	251.6	1.2907343125956
4	134788	251.7	1.2907343125956
4	134850	251.8	1.2907343125956
4	134908	251.9	1.2907343125956
4	134970	252	1.2907343125956
4	135032	252.1	1.2907343125956
4	135090	252.2	1.2907343125956
4	135152	252.3	1.2907343125956
4	135214	252.4	1.2907343125956
4	135276	252.5	1.2907343125956
4	135338	252.6	1.2907343125956
4	135400	252.7	1.2907343125956
4	135462	252.8	1.2907343125956
4	135520	252.9	1.2907343125956
4	135578	253	1.2907343125956
4	135640	253.1	1.2907343125956
4	135702	253.2	1.2907343125956
4	135764	253.3	1.2907343125956
4	135822	253.4	1.2907343125956
4	135884	253.5	1.2907343125956
4	135942	253.6	1.2907343125956
4	136004	253.7	1.2907343125956
4	136066	253.8	1.2907343125956
4	136128	253.9	1.2907343125956
4	136190	254	1.2907343125956
4	136252	254.1	1.2907343125956
4	136314	254.2	1.2907343125956
4	136372	254.3	1.2907343125956
4	136434	254.4	1.2907343125956
4	136496	254.5	1.2907343125956
4	136554	254.6	1.2907343125956
4	136616	254.7	1.2907343125956
4	136678	254.8	1.2907343125956
4	136736	254.9	1.2907343125956
4	136798	255	1.2907343125956
4	136860	255.1	1.2907343125956
4	136918	255.2	1.2907343125956
4	136980	255.3	1.2907343125956
4	137042	255.4	1.2907343125956
4	137104	255.5	1.2907343125956
4	137166	255.6	1.2907343125956
4	137224	255.7	1.2907343125956
4	137286	255.8	1.2907343125956
4	137344	255.9	1.2907343125956
4	137406	256	1.2907343125956
4	137468	256.1	1.2907343125956
4	137530	256.2	1.2907343125956
4	137592	256.3	1.2907343125956
4	137650	256.4	1.2907343125956
4	137712	256.5	1.2907343125956
4	137774	256.6	1.2907343125956
4	137832	256.7	1.2907343125956
4	137894	256.8	1.2907343125956
4	137956	256.9	1.2907343125956
4	138018	257	1.2907343125956
4	138080	257.1	1.2907343125956
4	138142	257.2	1.2907343125956
4	138204	257.3	1.2907343125956
4	138266	257.4	1.2907343125956
4	138324	257.5	1.2907343125956
4	138386	257.6	1.2907343125956
4	138448	257.7	1.2907343125956
4	138510	257.8	1.2907343125956
4	138572	257.9	1.2907343125956
4	138634	258	1.2907343125956
4	138696	258.1	1.2907343125956
4	138758	258.2	1.2907343125956
4	138820	258.3	1.2907343125956
4	138882	258.4	1.2907343125956
4	138944	258.5	1.2907343125956
4	139006	258.6	1.2907343125956
4	139068	258.7	1.2907343125956
4	139126	258.8	1.2907343125956
4	139188	258.9	1.2907343125956
4	139250	259	1.2907343125956
4	139312	259.1	1.2907343125956
4	139374	259.2	1.2907343125956
4	139432	259.3	1.2907343125956
4	139490	259.4	1.2907343125956
4	139552	259.5	1.2907343125956
4	139610	259.6	1.2907343125956
4	139672	259.7	1.2907343125956
4	139734	259.8	1.2907343125956
4	139796	259.9	1.2907343125956
4	139858	260	1.2907343125956
4	139920	260.1	1.2907343125956
4	139978	260.2	1.2907343125956
4	140040	260.3	1.2907343125956
4	140102	260.4	1.2907343125956
4	140164	260.5	1.2907343125956
4	140226	260.6	1.2907343125956
4	140288	260.7	1.2907343125956
4	140350	260.8	1.2907343125956
4	140412	260.9	1.2907343125956
4	140474	261	1.2907343125956
4	140536	261.1	1.2907343125956
4	140598	261.2	1.2907343125956
4	140660	261.3	1.2907343125956
4	140722	261.4	1.2907343125956
4	140784	261.5	1.2907343125956
4	140842	261.6	1.2907343125956
4	140904	261.7	1.2907343125956
4	140966	261.8	1.2907343125956
4	141028	261.9	1.2907343125956
4	141090	262	1.2907343125956
4	141148	262.1	1.2907343125956
4	141210	262.2	1.2907343125956
4	141268	262.3	1.2907343125956
4	141326	262.4	1.2907343125956
4	141384	262.5	1.2907343125956
4	141446	262.6	1.2907343125956
4	141508	262.7	1.2907343125956
4	141570	262.8	1.2907343125956
4	141632	262.9	1.2907343125956
4	141690	263	1.2907343125956
4	141752	263.1	1.2907343125956
4	141814	263.2	1.2907343125956
4	141876	263.3	1.2907343125956
4	141938	263.4	1.2907343125956
4	141996	263.5	1.2907343125956
4	142058	263.6	1.2907343125956
4	142120	263.7	1.2907343125956
4	142182	263.8	1.2907343125956
4	142244	263.9	1.2907343125956
4	142302	264	1.2907343125956
4	142364	264.1	1.2907343125956
4	142426	264.2	1.2907343125956
4	142484	264.3	1.2907343125956
4	142546	264.4	1.2907343125956
4	142604	264.5	1.2907343125956
4	142666	264.6	1.2907343125956
4	142728	264.7	1.2907343125956
4	142790	264.8	1.2907343125956
4	142852	264.9	1.2907343125956
4	142914	265	1.2907343125956
4	142972	265.1	1.2907343125956
4	143034	265.2	1.2907343125956
4	143096	265.3	1.2907343125956
4	143154	265.4	1.2907343125956
4	143216	265.5	1.2907343125956
4	143278	265.6	1.2907343125956
4	143336	265.7	1.2907343125956
4	143398	265.8	1.2907343125956
4	143460	265.9	1.2907343125956
4	143522	266	1.2907343125956
4	143580	266.1	1.2907343125956
4	143642	266.2	1.2907343125956
4	143704	266.3	1.2907343125956
4	143766	266.4	1.2907343125956
4	143828	266.5	1.2907343125956
4	143890	266.6	1.2907343125956
4	143952	266.7	1.2907343125956
4	144010	266.8	1.2907343125956
4	144072	266.9	1.2907343125956
4	144130	267	1.2907343125956
4	144192	267.1	1.2907343125956
4	144254	267.2	1.2907343125956
4	144316	267.3	1.2907343125956
4	144378	267.4	1.2907343125956
4	144440	267.5	1.2907343125956
4	144502	267.6	1.2907343125956
4	144564	267.7	1.2907343125956
4	144626	267.8	1.2907343125956
4	144688	267.9	1.2907343125956
4	144750	268	1.2907343125956
4	144812	268.1	1.2907343125956
4	144874	268.2	1.2907343125956
4	144936	268.3	1.2907343125956
4	144998	268.4	1.2907343125956
4	145060	268.5	1.2907343125956
4	145118	268.6	1.2907343125956
4	145180	268.7	1.2907343125956
4	145242	268.8	1.2907343125956
4	145304	268.9	1.2907343125956
4	145366	269	1.2907343125956
4	145428	269.1	1.2907343125956
4	145490	269.2	1.2907343125956
4	145548	269.3	1.2907343125956
4	145610	269.4	1.2907343125956
4	145672	269.5	1.2907343125956
4	145734	269.6	1.2907343125956
4	145796	269.7	1.2907343125956
4	145858	269.8	1.2907343125956
4	145916	269.9	1.2907343125956
4	145978	270	1.2907343125956
4	146040	270.1	1.2907343125956
4	146098	270.2	1.2907343125956
4	146160	270.3	1.2907343125956
4	146218	270.4	1.2907343125956
4	146276	270.5	1.2907343125956
4	146338	270.6	1.2907343125956
4	146400	270.7	1.2907343125956
4	146462	270.8	1.2907343125956
4	146524	270.9	1.2907343125956
4	146586	271	1.2907343125956
4	146648	271.1	1.2907343125956
4	146706	271.2	1.2907343125956
4	146768	271.3	1.2907343125956
4	146830	271.4	1.2907343125956
3	340	9.3	10
3	402	9.4	7.532
3	464	9.5	0
3	526	9.6	0
3	584	9.7	0
3	646	9.8	0
3	704	9.9	0
3	766	10	0
3	828	10.1	0
3	890	10.2	0
3	952	10.3	0
3	1014	10.4	0
3	1076	10.5	0
3	1138	10.6	0
3	1196	10.7	0
3	1254	10.8	0
3	1316	10.9	0
3	1378	11	0
3	1436	11.1	0
3	1498	11.2	0
3	1560	11.3	0
3	1618	11.4	0
3	1680	11.5	0
3	1742	11.6	0
3	1804	11.7	0
3	1862	11.8	0
3	1920	11.9	0
3	1968	12	0
3	2016	12.1	0
3	2064	12.2	0
3	2112	12.3	0
3	2160	12.4	0
3	2208	12.5	0
3	2256	12.6	0
3	2304	12.7	0
3	2352	12.8	0
3	2400	12.9	0
3	2448	13	0
3	2506	13.1	0
3	2564	13.2	0
3	2626	13.3	0
3	2688	13.4	0
3	2750	13.5	0
3	2812	13.6	0
3	2874	13.7	0
3	2936	13.8	0
3	2994	13.9	0
3	3056	14	0
3	3118	14.1	0
3	3180	14.2	0
3	3242	14.3	0
3	3300	14.4	0
3	3362	14.5	0
3	3420	14.6	0
3	3482	14.7	0
3	3544	14.8	0
3	3602	14.9	0
3	3660	15	0
3	3722	15.1	0
3	3784	15.2	0
3	3842	15.3	0
3	3890	15.4	0
3	3938	15.5	0
3	3986	15.6	0
3	4034	15.7	0
3	4082	15.8	0
3	4130	15.9	0
3	4178	16	0
3	4226	16.1	0
3	4274	16.2	0
3	4322	16.3	0
3	4370	16.4	0
3	4432	16.5	0
3	4490	16.6	0
3	4552	16.7	0
3	4614	16.8	0
3	4672	16.9	0
3	4730	17	0
3	4792	17.1	0
3	4854	17.2	0
3	4916	17.3	0
3	4964	17.4	0
3	5012	17.5	0
3	5060	17.6	0
3	5108	17.7	0
3	5156	17.8	0
3	5204	17.9	0
3	5252	18	0
3	5300	18.1	0
3	5348	18.2	0
3	5396	18.3	0
3	5444	18.4	0
3	5492	18.5	0
3	5540	18.6	0
3	5588	18.7	0
3	5636	18.8	0
3	5684	18.9	0
3	5732	19	0
3	5780	19.1	0
3	5828	19.2	0
3	5876	19.3	0
3	5924	19.4	0
3	5972	19.5	0
3	6020	19.6	0
3	6068	19.7	0
3	6116	19.8	0
3	6178	19.9	0
3	6240	20	0
3	6302	20.1	0
3	6364	20.2	0
3	6426	20.3	0
3	6488	20.4	0
3	6546	20.5	0
3	6608	20.6	0
3	6670	20.7	0
3	6732	20.8	0
3	6794	20.9	0
3	6856	21	0
3	6918	21.1	0
[...]
0	98584	192.7	290.557388
0	98642	192.8	290.192068
0	98766	192.9	289.826748
0	98876	193	289.461428
0	98938	193.1	289.096108
0	99000	193.2	288.730788
0	99062	193.3	288.36941016216
0	99124	193.4	288.01134637838
0	99182	193.5	287.64602637838
0	99244	193.6	287.28070637838
0	99306	193.7	286.91538637838
0	99368	193.8	286.55006637838
0	99492	193.9	286.18474637838
0	99602	194	285.81942637838
0	99664	194.1	285.45410637838
0	99726	194.2	285.08878637838
0	99788	194.3	284.72346637838
0	99850	194.4	284.35814637838
0	99912	194.5	283.99282637838
0	99974	194.6	283.62750637838
0	100036	194.7	283.26218637838
0	100098	194.8	282.89686637838
0	100156	194.9	282.53154637838
0	100218	195	282.16622637838
0	100280	195.1	281.80090637838
0	100342	195.2	281.43558637838
0	100404	195.3	281.07381948283
0	100466	195.4	280.78534316435
0	100524	195.5	280.59686684587
0	100582	195.6	280.50839052739
0	100640	195.7	280.501
0	100702	195.8	280.501
0	100760	195.9	280.501
0	100822	196	280.501
0	100880	196.1	280.501
0	100938	196.2	280.501
0	101000	196.3	280.501
0	101058	196.4	280.501
0	101116	196.5	280.5
0	101178	196.6	280.435
0	101240	196.7	280.27
0	101302	196.8	280.005
0	101364	196.9	279.65234
0	101422	197	279.28702
0	101484	197.1	278.9217
0	101546	197.2	278.55638
0	101604	197.3	278.19106
0	101662	197.4	277.82574
0	101720	197.5	277.46042
0	101778	197.6	277.0951
0	101840	197.7	276.72978
0	101902	197.8	276.36446
0	101960	197.9	275.99914
0	102022	198	275.63382
0	102084	198.1	275.2685
0	102146	198.2	274.90318
0	102208	198.3	274.53786
0	102266	198.4	274.17254
0	102328	198.5	273.80722
0	102390	198.6	273.4419
0	102452	198.7	273.07658
0	102514	198.8	272.71126
0	102576	198.9	272.34594
0	102638	199	271.98062
0	102700	199.1	271.6153
0	102762	199.2	271.24998
0	102824	199.3	270.88466
0	102886	199.4	270.51934
0	102948	199.5	270.15402
0	103010	199.6	269.7887
0	103072	199.7	269.42338
0	103130	199.8	269.05806
0	103192	199.9	268.69274
0	103250	200	268.32742
0	103308	200.1	267.9621
0	103366	200.2	267.59678
0	103428	200.3	267.23146
0	103486	200.4	266.86614
0	103548	200.5	266.50082
0	103610	200.6	266.1355
0	103672	200.7	265.77018
0	103734	200.8	265.40486
0	103796	200.9	265.03954
0	103854	201	264.67422
0	103916	201.1	264.3089
0	103978	201.2	263.94358
0	104036	201.3	263.57826
0	104098	201.4	263.21294
0	104156	201.5	262.84762
0	104218	201.6	262.4823
0	104280	201.7	262.11698
0	104342	201.8	261.75166
0	104404	201.9	261.38634
0	104462	202	261.02102
0	104524	202.1	260.6557
0	104586	202.2	260.29038
0	104648	202.3	259.92506
0	104706	202.4	259.55974
0	104768	202.5	259.19442
0	104830	202.6	258.8291
0	104888	202.7	258.46378
0	104950	202.8	258.09846
0	105012	202.9	257.73314
0	105074	203	257.36782
0	105132	203.1	257.0025
0	105190	203.2	256.63718
0	105248	203.3	256.27186
0	105310	203.4	255.90654
0	105372	203.5	255.54122
0	105430	203.6	255.1759
0	105492	203.7	254.81058
0	105550	203.8	254.44526
0	105608	203.9	254.07994
0	105670	204	253.71462
0	105732	204.1	253.3493
0	105790	204.2	252.98398
0	105852	204.3	252.61866
0	105914	204.4	252.25334
0	105976	204.5	251.88802
0	106038	204.6	251.5227
0	106096	204.7	251.15738
0	106158	204.8	250.79206
0	106216	204.9	250.42674
0	106278	205	250.06142
0	106340	205.1	249.6961
0	106402	205.2	249.33078
0	106464	205.3	248.96546
0	106526	205.4	248.60014
0	106588	205.5	248.23482
0	106646	205.6	247.8695
0	106708	205.7	247.50418
0	106770	205.8	247.13886
0	106828	205.9	246.77354
0	106886	206	246.40822
0	106948	206.1	246.0429
0	107006	206.2	245.67758
0	107068	206.3	245.31226
0	107130	206.4	244.94694
0	107192	206.5	244.58162
0	107254	206.6	244.2163
0	107316	206.7	243.85098
0	107378	206.8	243.48566
0	107440	206.9	243.12034
0	107502	207	242.75502
0	107564	207.1	242.3897
0	107626	207.2	242.02438
0	107688	207.3	241.65906
0	107746	207.4	241.29374
0	107808	207.5	240.92842
0	107870	207.6	240.5631
0	107928	207.7	240.19778
0	107986	207.8	239.83246
0	108048	207.9	239.46714
0	108110	208	239.10182
0	108172	208.1	238.7365
0	108234	208.2	238.37118
0	108292	208.3	238.00586
0	108354	208.4	237.64054
0	108416	208.5	237.27522
0	108478	208.6	236.9099
0	108540	208.7	236.54458
0	108602	208.8	236.17926
0	108660	208.9	235.81394
0	108722	209	235.44862
0	108784	209.1	235.0833
0	108846	209.2	234.71798
0	108904	209.3	234.35266
0	108962	209.4	233.98734
0	109024	209.5	233.62202
0	109082	209.6	233.2567
0	109140	209.7	232.89138
0	109202	209.8	232.52606
0	109260	209.9	232.16074
0	109322	210	231.79542
0	109384	210.1	231.4301
0	109446	210.2	231.06478
0	109508	210.3	230.69946
0	109570	210.4	230.33414
0	109632	210.5	229.96882
0	109690	210.6	229.6035
0	109752	210.7	229.23818
0	109814	210.8	228.87286
0	109876	210.9	228.50754
0	109934	211	228.14222
0	109996	211.1	227.7769
0	110058	211.2	227.41158
0	110120	211.3	227.04626
0	110182	211.4	226.68094
0	110244	211.5	226.31562
0	110306	211.6	225.9503
0	110368	211.7	225.58498
0	110430	211.8	225.21966
0	110492	211.9	224.85434
0	110554	212	224.48902
0	110616	212.1	224.1237
0	110674	212.2	223.75838
0	110736	212.3	223.39306
0	110798	212.4	223.02774
0	110860	212.5	222.66242
0	110922	212.6	222.2971
0	110984	212.7	221.93178
0	111046	212.8	221.56646
0	111104	212.9	221.20114
0	111166	213	220.83582
0	111228	213.1	220.4705
0	111290	213.2	220.10518
0	111352	213.3	219.73986
0	111410	213.4	219.37454
0	111468	213.5	219.00922
0	111530	213.6	218.6439
0	111588	213.7	218.27858
0	111650	213.8	217.91326
0	111712	213.9	217.54794
0	111774	214	217.18262
0	111836	214.1	216.8173
0	111894	214.2	216.45198
0	111956	214.3	216.08666
0	112018	214.4	215.72134
0	112080	214.5	215.35602
0	112142	214.6	214.9907
0	112204	214.7	214.62538
0	112266	214.8	214.26006
0	112328	214.9	213.89474
0	112386	215	213.52942
0	112448	215.1	213.1641
0	112510	215.2	212.79878
0	112568	215.3	212.43346
0	112630	215.4	212.06814
0	112692	215.5	211.70282
0	112754	215.6	211.3375
0	112816	215.7	210.97218
0	112874	215.8	210.60686
0	112936	215.9	210.24154
0	112994	216	209.87622
0	113056	216.1	209.5109
0	113118	216.2	209.14558
0	113180	216.3	208.78026
0	113242	216.4	208.41494
0	113300	216.5	208.04962
0	113362	216.6	207.6843
0	113424	216.7	207.31898
0	113486	216.8	206.95366
0	113548	216.9	206.58834
0	113610	217	206.22302
0	113672	217.1	205.8577
0	113734	217.2	205.49238
0	113796	217.3	205.12706
0	113854	217.4	204.76174
0	113916	217.5	204.39642
0	113974	217.6	204.0311
0	114032	217.7	203.66578
0	114094	217.8	203.30046
0	114156	217.9	202.93514
0	114218	218	202.56982
0	114276	218.1	202.2045
0	114334	218.2	201.83918
0	114396	218.3	201.47386
0	114458	218.4	201.10854
0	114520	218.5	200.74322
0	114578	218.6	200.3779
0	114636	218.7	200.01258
0	114694	218.8	199.64726
0	114756	218.9	199.28194
0	114818	219	198.91662
0	114876	219.1	198.5513
0	114938	219.2	198.18598
0	115000	219.3	197.82066
0	115058	219.4	197.45534
0	115116	219.5	197.09002
0	115178	219.6	196.7247
0	115240	219.7	196.35938
0	115298	219.8	195.99406
0	115360	219.9	195.62874
0	115418	220	195.26342
0	115480	220.1	194.8981
0	115542	220.2	194.53278
0	115604	220.3	194.16746
0	115666	220.4	193.80214
0	115728	220.5	193.43682
0	115790	220.6	193.0715
0	115852	220.7	192.70618
0	115914	220.8	192.34086
0	115972	220.9	191.97554
0	116034	221	191.61022
0	116096	221.1	191.2449
0	116158	221.2	190.87958
0	116220	221.3	190.51426
0	116278	221.4	190.14894
0	116340	221.5	189.78362
0	116398	221.6	189.4183
0	116460	221.7	189.05298
0	116522	221.8	188.68766
0	116584	221.9	188.32234
0	116646	222	187.95702
0	116708	222.1	187.5917
0	116770	222.2	187.22638
0	116832	222.3	186.86106
0	116894	222.4	186.49574
0	116956	222.5	186.13042
0	117018	222.6	185.7651
0	117080	222.7	185.39978
0	117138	222.8	185.03446
0	117200	222.9	184.66914
0	117262	223	184.30382
0	117320	223.1	183.9385
0	117382	223.2	183.57318
0	117444	223.3	183.20786
0	117506	223.4	182.84254
0	117568	223.5	182.47722
0	117630	223.6	182.1119
0	117692	223.7	181.74658
0	117750	223.8	181.38126
0	117808	223.9	181.01594
0	117870	224	180.65062
0	117932	224.1	180.2853
0	117994	224.2	179.91998
0	118052	224.3	179.55466
0	118110	224.4	179.18934
0	118172	224.5	178.82402
0	118234	224.6	178.4587
0	118296	224.7	178.09338
0	118354	224.8	177.72806
0	118412	224.9	177.36274
0	118470	225	176.99742
0	118532	225.1	176.6321
0	118590	225.2	176.26678
0	118652	225.3	175.90146
0	118710	225.4	175.53614
0	118768	225.5	175.17082
0	118830	225.6	174.8055
0	118892	225.7	174.44018
0	118954	225.8	174.07486
0	119016	225.9	173.70954
0	119078	226	173.34422
0	119140	226.1	172.9789
0	119198	226.2	172.61358
0	119260	226.3	172.24826
0	119322	226.4	171.88294
0	119380	226.5	171.51762
0	119442	226.6	171.1523
0	119500	226.7	170.78698
0	119562	226.8	170.42166
0	119624	226.9	170.05634
0	119686	227	169.69102
0	119748	227.1	169.3257
0	119810	227.2	168.96038
0	119872	227.3	168.59506
0	119934	227.4	168.22974
0	119996	227.5	167.86442
0	120058	227.6	167.4991
0	120120	227.7	167.13378
0	120182	227.8	166.76846
0	120244	227.9	166.40314
0	120306	228	166.03782
0	120368	228.1	165.6725
0	120430	228.2	165.30718
0	120492	228.3	164.94186
0	120550	228.4	164.57654
0	120612	228.5	164.21122
0	120674	228.6	163.8459
0	120736	228.7	163.48058
0	120798	228.8	163.11526
0	120860	228.9	162.74994
0	120922	229	162.38462
0	120984	229.1	162.0193
0	121046	229.2	161.65398
0	121108	229.3	161.28866
0	121170	229.4	160.92334
0	121232	229.5	160.55802
0	121290	229.6	160.1927
0	121348	229.7	159.82738
0	121406	229.8	159.46206
0	121468	229.9	159.09674
0	121530	230	158.73142
0	121592	230.1	158.3661
0	121654	230.2	158.00078
0	121716	230.3	157.63546
0	121778	230.4	157.27014
0	121840	230.5	156.90482
0	121902	230.6	156.5395
0	121964	230.7	156.17418
0	122026	230.8	155.80886
0	122088	230.9	155.44354
0	122150	231	155.07822
0	122212	231.1	154.7129
0	122274	231.2	154.34758
0	122336	231.3	153.98226
0	122398	231.4	153.61694
0	122460	231.5	153.25162
0	122522	231.6	152.8863
0	122584	231.7	152.52098
0	122646	231.8	152.15566
0	122708	231.9	151.79034
0	122770	232	151.42502
0	122832	232.1	151.0597
0	122894	232.2	150.69438
0	122956	232.3	150.32906
0	123014	232.4	149.96374
0	123076	232.5	149.59842
0	123138	232.6	149.2331
0	123200	232.7	148.86778
0	123258	232.8	148.50246
0	123316	232.9	148.13714
0	123374	233	147.77182
0	123436	233.1	147.4065
0	123498	233.2	147.04118
0	123560	233.3	146.67586
0	123622	233.4	146.31054
0	123684	233.5	145.94522
0	123742	233.6	145.5799
0	123804	233.7	145.21458
0	123866	233.8	144.84926
0	123928	233.9	144.48394
0	123986	234	144.11862
0	124048	234.1	143.7533
0	124110	234.2	143.38798
0	124168	234.3	143.02266
0	124230	234.4	142.65734
0	124292	234.5	142.29202
0	124350	234.6	141.9267
0	124408	234.7	141.56138
0	124470	234.8	141.19606
0	124532	234.9	140.83074
0	124594	235	140.46542
0	124656	235.1	140.1001
0	124718	235.2	139.73478
0	124776	235.3	139.36946
0	124838	235.4	139.00414
0	124900	235.5	138.63882
0	124962	235.6	138.2735
0	125020	235.7	137.90818
0	125082	235.8	137.54286
0	125144	235.9	137.17754
0	125202	236	136.81222
0	125264	236.1	136.4469
0	125322	236.2	136.08158
0	125384	236.3	135.71626
0	125446	236.4	135.35094
0	125508	236.5	134.98562
0	125570	236.6	134.6203
0	125632	236.7	134.25498
0	125694	236.8	133.88966
0	125752	236.9	133.52434
0	125814	237	133.15902
0	125876	237.1	132.7937
0	125938	237.2	132.42838
0	126000	237.3	132.06306
0	126062	237.4	131.69774
0	126124	237.5	131.33242
0	126186	237.6	130.9671
0	126248	237.7	130.60178
0	126310	237.8	130.23646
0	126372	237.9	129.87114
0	126430	238	129.50582
0	126492	238.1	129.1405
0	126554	238.2	128.77518
0	126616	238.3	128.40986
0	126678	238.4	128.04454
0	126740	238.5	127.67922
0	126802	238.6	127.3139
0	126864	238.7	126.94858
0	126926	238.8	126.58326
0	126988	238.9	126.21794
0	127050	239	125.85262
0	127108	239.1	125.4873
0	127170	239.2	125.12198
0	127232	239.3	124.75666
0	127294	239.4	124.39134
0	127356	239.5	124.02602
0	127414	239.6	123.6607
0	127476	239.7	123.29538
0	127538	239.8	122.93006
0	127600	239.9	122.56474
0	127662	240	122.19942
0	127724	240.1	121.8341
0	127786	240.2	121.46878
0	127848	240.3	121.10346
0	127910	240.4	120.73814
0	127968	240.5	120.37282
0	128030	240.6	120.0075
0	128088	240.7	119.64218
0	128146	240.8	119.27686
0	128208	240.9	118.91154
0	128266	241	118.54622
0	128328	241.1	118.1809
0	128390	241.2	117.81558
0	128448	241.3	117.45026
0	128510	241.4	117.08494
0	128572	241.5	116.71962
0	128630	241.6	116.3543
0	128692	241.7	115.98898
0	128750	241.8	115.62366
0	128812	241.9	115.25834
0	128874	242	114.89302
0	128936	242.1	114.5277
0	128994	242.2	114.16238
0	129052	242.3	113.79706
0	129114	242.4	113.43174
0	129172	242.5	113.06642
0	129234	242.6	112.7011
0	129292	242.7	112.33578
0	129354	242.8	111.97046
0	129416	242.9	111.60514
0	129474	243	111.23982
0	129536	243.1	110.8745
0	129598	243.2	110.50918
0	129656	243.3	110.14386
0	129714	243.4	109.77854
0	129776	243.5	109.41322
0	129834	243.6	109.0479
0	129892	243.7	108.68258
0	129954	243.8	108.31726
0	130016	243.9	107.95194
0	130078	244	107.58662
0	130140	244.1	107.2213
0	130202	244.2	106.85598
0	130260	244.3	106.49066
0	130322	244.4	106.12534
0	130384	244.5	105.76002
0	130442	244.6	105.3947
0	130504	244.7	105.02938
0	130566	244.8	104.66406
0	130624	244.9	104.29874
0	130686	245	103.93342
0	130744	245.1	103.5681
0	130806	245.2	103.20278
0	130868	245.3	102.83746
0	130930	245.4	102.47214
0	130988	245.5	102.10682
0	131046	245.6	101.7415
0	131108	245.7	101.37618
0	131170	245.8	101.01086
0	131228	245.9	100.64554
0	131286	246	100.28022
0	131348	246.1	99.914900000001
0	131410	246.2	99.549580000001
0	131472	246.3	99.184260000001
0	131534	246.4	98.818940000001
0	131592	246.5	98.453620000001
0	131654	246.6	98.088300000001
0	131716	246.7	97.722980000001
0	131778	246.8	97.357660000001
0	131840	246.9	96.992340000001
0	131902	247	96.627020000001
0	131964	247.1	96.261700000001
0	132026	247.2	95.896380000001
0	132088	247.3	95.531060000001
0	132150	247.4	95.165740000001
0	132208	247.5	94.800420000001
0	132270	247.6	94.435100000001
0	132332	247.7	94.069780000001
0	132394	247.8	93.704460000001
0	132456	247.9	93.339140000001
0	132514	248	92.973820000001
0	132576	248.1	92.608500000001
0	132638	248.2	92.243180000001
0	132700	248.3	91.877860000001
0	132762	248.4	91.512540000001
0	132824	248.5	91.147220000001
0	132886	248.6	90.781900000001
0	132944	248.7	90.416580000001
0	133006	248.8	90.051260000001
0	133068	248.9	89.685940000001
0	133130	249	89.320620000001
0	133188	249.1	88.955300000001
0	133250	249.2	88.589980000001
0	133312	249.3	88.224660000001
0	133374	249.4	87.859340000001
0	133436	249.5	87.5
0	133498	249.6	87.228700000001
0	133560	249.7	86.863380000001
0	133622	249.8	86.498060000001
0	133684	249.9	86.132740000001
0	133746	250	85.767420000001
0	133808	250.1	85.402100000001
0	133870	250.2	85.036780000001
0	133932	250.3	84.671460000001
0	133994	250.4	84.306140000001
0	134056	250.5	83.940820000001
0	134114	250.6	83.575500000001
0	134176	250.7	83.210180000001
0	134234	250.8	82.844860000001
0	134296	250.9	82.479540000001
0	134358	251	82.114220000001
0	134420	251.1	81.748900000001
0	134482	251.2	81.383580000001
0	134544	251.3	81.018260000001
0	134606	251.4	80.652940000001
0	134668	251.5	80.287620000001
0	134730	251.6	79.922300000001
0	134788	251.7	79.556980000001
0	134850	251.8	79.191660000001
0	134908	251.9	78.826340000001
0	134970	252	78.461020000001
0	135032	252.1	78.095700000001
0	135090	252.2	77.730380000001
0	135152	252.3	77.365060000001
0	135214	252.4	76.999740000001
0	135276	252.5	76.634420000001
0	135338	252.6	76.269100000001
0	135400	252.7	75.903780000001
0	135462	252.8	75.538460000001
0	135520	252.9	75.173140000001
0	135578	253	74.807820000001
0	135640	253.1	74.442500000001
0	135702	253.2	74.077180000001
0	135764	253.3	73.711860000001
0	135822	253.4	73.346540000001
0	135884	253.5	72.981220000001
0	135942	253.6	72.615900000001
0	136004	253.7	72.250580000001
0	136066	253.8	71.885260000001
0	136128	253.9	71.519940000001
0	136190	254	71.154620000001
0	136252	254.1	70.789300000001
0	136314	254.2	70.423980000001
0	136372	254.3	70.058660000001
0	136434	254.4	69.693340000001
0	136496	254.5	69.328020000001
0	136554	254.6	68.962700000001
0	136616	254.7	68.597380000001
0	136678	254.8	68.232060000001
0	136736	254.9	67.866740000001
0	136798	255	67.501420000001
0	136860	255.1	67.136100000001
0	136918	255.2	66.770780000001
0	136980	255.3	66.405460000001
0	137042	255.4	66.040140000001
0	137104	255.5	65.674820000001
0	137166	255.6	65.309500000001
0	137224	255.7	64.944180000001
0	137286	255.8	64.578860000001
0	137344	255.9	64.213540000001
0	137406	256	63.848220000001
0	137468	256.1	63.482900000001
0	137530	256.2	63.117580000001
0	137592	256.3	62.752260000001
0	137650	256.4	62.386940000001
0	137712	256.5	62.021620000001
0	137774	256.6	61.656300000001
0	137832	256.7	61.290980000001
0	137894	256.8	60.925660000001
0	137956	256.9	60.560340000001
0	138018	257	60.195020000001
0	138080	257.1	59.829700000001
0	138142	257.2	59.464380000001
0	138204	257.3	59.099060000001
0	138266	257.4	58.733740000001
0	138324	257.5	58.368420000001
0	138386	257.6	58.003100000001
0	138448	257.7	57.637780000001
0	138510	257.8	57.272460000001
0	138572	257.9	56.910038000084
0	138634	258	56.548333029076
0	138696	258.1	56.186628058067
0	138758	258.2	55.824923087059
0	138820	258.3	55.46321811605
0	138882	258.4	55.101513145041
0	138944	258.5	54.739808174033
0	139006	258.6	54.378103203024
0	139068	258.7	54.016398232016
0	139126	258.8	53.654693261007
0	139188	258.9	53.300616533144
0	139250	259	52.987308171636
0	139312	259.1	52.673999810128
0	139374	259.2	52.360691448619
0	139432	259.3	52.047383087111
0	139490	259.4	51.734074725603
0	139552	259.5	51.420766364094
0	139610	259.6	51.107458002586
0	139672	259.7	50.794149641078
0	139734	259.8	50.528504767742
0	139796	259.9	50.340519750837
0	139858	260	50.152534733932
0	139920	260.1	49.964549717027
0	139978	260.2	49.776564700122
0	140040	260.3	49.588579683217
0	140102	260.4	49.400594666312
0	140164	260.5	49.212609649407
0	140226	260.6	49.024624632502
0	140288	260.7	48.918840210756
0	140350	260.8	48.867168072041
0	140412	260.9	48.815495933325
0	140474	261	48.76382379461
0	140536	261.1	48.712151655894
0	140598	261.2	48.660479517179
0	140660	261.3	48.608807378463
0	140722	261.4	48.557135239748
0	140784	261.5	48.505463101032
0	140842	261.6	48.453790962317
0	140904	261.7	48.402118823601
0	140966	261.8	48.4
0	141028	261.9	48.4
0	141090	262	48.4
0	141148	262.1	48.4
0	141210	262.2	48.4
0	141268	262.3	48.4
0	141326	262.4	48.4
0	141384	262.5	48.4
0	141446	262.6	48.4
0	141508	262.7	48.4
0	141570	262.8	48.4
0	141632	262.9	48.4
0	141690	263	48.4
0	141752	263.1	48.4
0	141814	263.2	48.4
0	141876	263.3	48.4
0	141938	263.4	48.4
0	141996	263.5	48.4
0	142058	263.6	48.4
0	142120	263.7	48.4
0	142182	263.8	48.4
0	142244	263.9	48.4
0	142302	264	48.4
0	142364	264.1	48.4
0	142426	264.2	48.4
0	142484	264.3	48.4
0	142546	264.4	48.4
0	142604	264.5	48.4
0	142666	264.6	48.4
0	142728	264.7	48.4
0	142790	264.8	48.4
0	142852	264.9	48.4
0	142914	265	48.4
0	142972	265.1	48.4
0	143034	265.2	48.4
0	143096	265.3	48.4
0	143154	265.4	48.4
0	143216	265.5	48.4
0	143278	265.6	48.4
0	143336	265.7	48.4
0	143398	265.8	48.4
0	143460	265.9	48.4
0	143522	266	48.4
0	143580	266.1	48.4
0	143642	266.2	48.4
0	143704	266.3	48.4
0	143766	266.4	48.4
0	143828	266.5	48.4
0	143890	266.6	48.4
0	143952	266.7	48.4
0	144010	266.8	48.4
0	144072	266.9	48.4
0	144130	267	48.4
0	144192	267.1	48.4
0	144254	267.2	48.4
0	144316	267.3	48.4
0	144378	267.4	48.4
0	144440	267.5	48.4
0	144502	267.6	48.4
0	144564	267.7	48.4
0	144626	267.8	48.4
0	144688	267.9	48.4
0	144750	268	48.4
0	144812	268.1	48.4
0	144874	268.2	48.4
0	144936	268.3	48.4
0	144998	268.4	48.4
0	145060	268.5	48.4
0	145118	268.6	48.4
0	145180	268.7	48.4
0	145242	268.8	48.4
0	145304	268.9	48.4
0	145366	269	48.4
0	145428	269.1	48.4
0	145490	269.2	48.4
0	145548	269.3	48.4
0	145610	269.4	48.4
0	145672	269.5	48.4
0	145734	269.6	48.4
0	145796	269.7	48.4
0	145858	269.8	48.4
0	145916	269.9	48.4
0	145978	270	48.4
0	146040	270.1	48.4
0	146098	270.2	48.4
0	146160	270.3	48.4
0	146218	270.4	48.4
0	146276	270.5	48.4
0	146338	270.6	48.4
0	146400	270.7	48.4
0	146462	270.8	48.4
0	146524	270.9	48.4
0	146586	271	48.4
0	146648	271.1	48.4
0	146706	271.2	48.4
0	146768	271.3	48.4
0	146830	271.4	48.4

